##########                 Name:     ZINC000631197876
##########          Protonation:                 none
##########               SMILES:   CCC[C@@H](CCO)[NH2+]CC1=CC2=C(C)C=CC=C2N1
##########            Long Name:   NO_LONG_NAME
##########          FlexRecCode: 1
##########               Number:                 9084
##########   Ligand Source File: /nfs/db/export/3D/CG/ADRO/CGADRO.xcbk.db2.gz
##########                 Rank:                    1
##########               Setnum:                   89
##########             Matchnum:                    1
##########                Cloud:                    1
##########        Electrostatic:           -48.130604
##########                 Gist:             0.000000
##########        Van der Waals:           -26.852526
##########  Ligand Polar Desolv:            15.270284
########## Ligand Apolar Desolv:            -3.009139
##########      Internal Energy:             0.000000
##########      Receptor Energy:             0.000000
########## Receptor Desolvation:             0.000000
########## Receptor Hydrophobic:             0.000000
##########         Total Energy:           -62.721985
##########        Ligand Charge:             1.000000
##########            Arbitrary:    +999.9990
##########        Ligand Energy:             0.000000

@<TRIPOS>MOLECULE
 ZINC000631197876      none
   44    45     0     0     0



@<TRIPOS>ATOM
      1 C1        -15.7566    18.4046   -21.8360 C.3        1  LIG1  -0.1600
      2 C2        -16.6972    18.4619   -20.6306 C.3        1  LIG1  -0.1400
      3 C3        -16.7302    17.0950   -19.9441 C.3        1  LIG1  -0.1500
      4 C4        -17.6708    17.1522   -18.7387 C.3        1  LIG1   0.0300
      5 H1        -17.5422    18.1036   -18.2225 H          1  LIG1   0.1400
      6 C5        -19.1188    17.0220   -19.2152 C.3        1  LIG1  -0.1500
      7 C6        -20.0608    17.5636   -18.1380 C.3        1  LIG1   0.0800
      8 O1        -19.8868    16.8155   -16.9331 O.3        1  LIG1  -0.5700
      9 N1        -17.3567    16.0501   -17.8198 N.4        1  LIG1  -0.5100
     10 H2        -18.1474    15.8796   -17.2165 H          1  LIG1   0.4300
     11 H3        -17.1531    15.2167   -18.3510 H          1  LIG1   0.4300
     12 C7        -16.1881    16.4094   -17.0054 C.3        1  LIG1   0.0700
     13 C8        -15.8660    15.2787   -16.0626 C.2        1  LIG1  -0.0200
     14 C9        -14.8604    15.2796   -15.1735 C.2        1  LIG1  -0.1200
     15 C10       -14.9098    13.9958   -14.4697 C.ar       1  LIG1  -0.1200
     16 C11       -14.1458    13.4148   -13.4562 C.ar       1  LIG1  -0.0200
     17 C12       -12.9816    14.1652   -12.8622 C.3        1  LIG1  -0.1200
     18 C13       -14.4576    12.1634   -13.0039 C.ar       1  LIG1  -0.1400
     19 C14       -15.5279    11.4649   -13.5449 C.ar       1  LIG1  -0.0700
     20 C15       -16.2952    12.0193   -14.5461 C.ar       1  LIG1  -0.1400
     21 C16       -15.9962    13.2919   -15.0211 C.ar       1  LIG1   0.1200
     22 N2        -16.5589    14.1015   -15.9823 N.pl3      1  LIG1  -0.5900
     23 H4        -15.7331    19.3785   -22.3250 H          1  LIG1   0.0700
     24 H5        -14.7531    18.1415   -21.5016 H          1  LIG1   0.0600
     25 H6        -16.1137    17.6530   -22.5400 H          1  LIG1   0.0700
     26 H7        -16.3403    19.2135   -19.9266 H          1  LIG1   0.0600
     27 H8        -17.7008    18.7248   -20.9650 H          1  LIG1   0.0800
     28 H9        -17.0872    16.3432   -20.6482 H          1  LIG1   0.1200
     29 H10       -15.7267    16.8320   -19.6097 H          1  LIG1   0.0900
     30 H11       -19.2517    17.5927   -20.1343 H          1  LIG1   0.1000
     31 H12       -19.3467    15.9727   -19.4029 H          1  LIG1   0.1000
     32 H13       -19.8331    18.6129   -17.9502 H          1  LIG1   0.0600
     33 H14       -21.0925    17.4708   -18.4774 H          1  LIG1   0.0600
     34 H15       -20.0727    15.8711   -17.0260 H          1  LIG1   0.4000
     35 H16       -15.3340    16.5936   -17.6570 H          1  LIG1   0.1400
     36 H17       -16.4081    17.3096   -16.4314 H          1  LIG1   0.1600
     37 H18       -14.1494    16.0757   -15.0085 H          1  LIG1   0.1600
     38 H19       -12.5111    13.5549   -12.0913 H          1  LIG1   0.0800
     39 H20       -12.2551    14.3866   -13.6440 H          1  LIG1   0.0700
     40 H21       -13.3365    15.0970   -12.4218 H          1  LIG1   0.0700
     41 H22       -13.8661    11.7144   -12.2198 H          1  LIG1   0.1300
     42 H23       -15.7615    10.4764   -13.1776 H          1  LIG1   0.1400
     43 H24       -17.1258    11.4675   -14.9606 H          1  LIG1   0.1300
     44 H25       -17.3302    13.8707   -16.5234 H          1  LIG1   0.4200
@<TRIPOS>BOND
     1    1    2 1
     2    1   23 1
     3    1   24 1
     4    1   25 1
     5    2    3 1
     6    2   26 1
     7    2   27 1
     8    3    4 1
     9    3   28 1
    10    3   29 1
    11    4    5 1
    12    4    6 1
    13    4    9 1
    14    6    7 1
    15    6   30 1
    16    6   31 1
    17    7    8 1
    18    7   32 1
    19    7   33 1
    20    8   34 1
    21    9   10 1
    22    9   11 1
    23    9   12 1
    24   12   13 1
    25   12   35 1
    26   12   36 1
    27   13   22 1
    28   13   14 2
    29   14   15 1
    30   14   37 1
    31   15   21 ar
    32   15   16 ar
    33   16   17 1
    34   16   18 ar
    35   17   38 1
    36   17   39 1
    37   17   40 1
    38   18   19 ar
    39   18   41 1
    40   19   20 ar
    41   19   42 1
    42   20   21 ar
    43   20   43 1
    44   21   22 1
    45   22   44 1
##########                 Name:     ZINC000641768533
##########          Protonation:                 none
##########               SMILES:   CC#CC[C@H](CO)[NH2+]CC1=CN(C)N=C1C1=CC2=CC=CC=C2O1
##########            Long Name:   NO_LONG_NAME
##########          FlexRecCode: 1
##########               Number:                 2532
##########   Ligand Source File: /nfs/db/export/3D/DF/EDRO/DFEDRO.xbf.db2.gz
##########                 Rank:                    1
##########               Setnum:                  201
##########             Matchnum:                    1
##########                Cloud:                    1
##########        Electrostatic:           -42.392021
##########                 Gist:             0.000000
##########        Van der Waals:           -28.492712
##########  Ligand Polar Desolv:            12.505005
########## Ligand Apolar Desolv:            -4.180753
##########      Internal Energy:             0.000000
##########      Receptor Energy:             0.000000
########## Receptor Desolvation:             0.000000
########## Receptor Hydrophobic:             0.000000
##########         Total Energy:           -62.560486
##########        Ligand Charge:             1.000000
##########            Arbitrary:    +999.9990
##########        Ligand Energy:             0.000000

@<TRIPOS>MOLECULE
 ZINC000641768533      none
   46    48     0     0     0



@<TRIPOS>ATOM
      1 C1        -22.8575    18.6819   -20.3922 C.3        1  LIG1  -0.0600
      2 C2        -21.6769    17.8799   -20.0317 C.1        1  LIG1  -0.1200
      3 C3        -20.7354    17.2404   -19.7443 C.1        1  LIG1  -0.2600
      4 C4        -19.5548    16.4384   -19.3839 C.3        1  LIG1  -0.0100
      5 C5        -18.5938    17.2905   -18.5524 C.3        1  LIG1   0.0400
      6 H1        -19.1636    17.9052   -17.8554 H          1  LIG1   0.1500
      7 C6        -17.7794    18.1936   -19.4807 C.3        1  LIG1   0.0500
      8 O1        -17.0326    17.3878   -20.3944 O.3        1  LIG1  -0.5700
      9 N1        -17.6855    16.4133   -17.8018 N.4        1  LIG1  -0.5100
     10 H2        -18.1987    15.6181   -17.4517 H          1  LIG1   0.4200
     11 H3        -16.9462    16.0950   -18.4104 H          1  LIG1   0.4300
     12 C7        -17.1063    17.1570   -16.6751 C.3        1  LIG1   0.0800
     13 C8        -16.1744    16.2570   -15.9052 C.2        1  LIG1  -0.3000
     14 C9        -16.4209    14.9796   -15.5435 C.2        1  LIG1   0.1100
     15 N2        -15.3436    14.5203   -14.8707 N.pl3      1  LIG1  -0.3400
     16 C10       -15.1939    13.1788   -14.3012 C.3        1  LIG1   0.0900
     17 N3        -14.3939    15.5482   -14.8122 N.2        1  LIG1  -0.2400
     18 C11       -14.8873    16.5972   -15.4397 C.2        1  LIG1   0.1700
     19 C12       -14.2144    17.9019   -15.6162 C.2        1  LIG1   0.0600
     20 C13       -13.3101    18.4331   -14.7599 C.2        1  LIG1  -0.1200
     21 C14       -12.9155    19.7219   -15.3337 C.ar       1  LIG1  -0.1400
     22 C15       -12.0366    20.7328   -14.9435 C.ar       1  LIG1  -0.0600
     23 C16       -11.8923    21.8449   -15.7261 C.ar       1  LIG1  -0.1300
     24 C17       -12.6141    21.9734   -16.9037 C.ar       1  LIG1  -0.0800
     25 C18       -13.4876    20.9847   -17.3059 C.ar       1  LIG1  -0.1100
     26 C19       -13.6497    19.8466   -16.5269 C.ar       1  LIG1   0.0700
     27 O2        -14.4054    18.7372   -16.6562 O.3        1  LIG1  -0.2000
     28 H4        -23.7627    18.1250   -20.1503 H          1  LIG1   0.0900
     29 H5        -22.8459    19.6173   -19.8328 H          1  LIG1   0.0900
     30 H6        -22.8380    18.8973   -21.4605 H          1  LIG1   0.0900
     31 H7        -19.8682    15.5717   -18.8018 H          1  LIG1   0.1200
     32 H8        -19.0518    16.1041   -20.2911 H          1  LIG1   0.1300
     33 H9        -18.4533    18.8447   -20.0375 H          1  LIG1   0.1000
     34 H10       -17.0948    18.8007   -18.8884 H          1  LIG1   0.0700
     35 H11       -17.5787    16.8203   -20.9555 H          1  LIG1   0.4000
     36 H12       -16.5518    18.0158   -17.0533 H          1  LIG1   0.1400
     37 H13       -17.9049    17.5008   -16.0178 H          1  LIG1   0.1400
     38 H14       -17.3220    14.4230   -15.7546 H          1  LIG1   0.1900
     39 H15       -14.2208    13.0960   -13.8172 H          1  LIG1   0.0900
     40 H16       -15.9808    13.0059   -13.5671 H          1  LIG1   0.1000
     41 H17       -15.2689    12.4364   -15.0959 H          1  LIG1   0.1000
     42 H18       -12.9524    17.9955   -13.8395 H          1  LIG1   0.1700
     43 H19       -11.4730    20.6377   -14.0272 H          1  LIG1   0.1300
     44 H20       -11.2124    22.6283   -15.4253 H          1  LIG1   0.1400
     45 H21       -12.4910    22.8573   -17.5120 H          1  LIG1   0.1400
     46 H22       -14.0448    21.0955   -18.2245 H          1  LIG1   0.1400
@<TRIPOS>BOND
     1    1    2 1
     2    1   28 1
     3    1   29 1
     4    1   30 1
     5    2    3 3
     6    3    4 1
     7    4    5 1
     8    4   31 1
     9    4   32 1
    10    5    6 1
    11    5    7 1
    12    5    9 1
    13    7    8 1
    14    7   33 1
    15    7   34 1
    16    8   35 1
    17    9   10 1
    18    9   11 1
    19    9   12 1
    20   12   13 1
    21   12   36 1
    22   12   37 1
    23   13   18 1
    24   13   14 2
    25   14   15 1
    26   14   38 1
    27   15   16 1
    28   15   17 1
    29   16   39 1
    30   16   40 1
    31   16   41 1
    32   17   18 2
    33   18   19 1
    34   19   27 1
    35   19   20 2
    36   20   21 1
    37   20   42 1
    38   21   26 ar
    39   21   22 ar
    40   22   23 ar
    41   22   43 1
    42   23   24 ar
    43   23   44 1
    44   24   25 ar
    45   24   45 1
    46   25   26 ar
    47   25   46 1
    48   26   27 1
##########                 Name:     ZINC000433235347
##########          Protonation:                 none
##########               SMILES:   COC1=CC=C(Cl)C=C1NC(=O)C[N@@H+]1CC2(CCC2)C[C@H]1C
##########            Long Name:   NO_LONG_NAME
##########          FlexRecCode: 1
##########               Number:                 3426
##########   Ligand Source File: /nfs/db/export/3D/DH/ADRO/DHADRO.xdu.db2.gz
##########                 Rank:                    1
##########               Setnum:                   65
##########             Matchnum:                    1
##########                Cloud:                    1
##########        Electrostatic:           -46.258514
##########                 Gist:             0.000000
##########        Van der Waals:           -27.930391
##########  Ligand Polar Desolv:            13.620740
########## Ligand Apolar Desolv:            -4.865261
##########      Internal Energy:             0.000000
##########      Receptor Energy:             0.000000
########## Receptor Desolvation:             0.000000
########## Receptor Hydrophobic:             0.000000
##########         Total Energy:           -65.433426
##########        Ligand Charge:             1.000000
##########            Arbitrary:    +999.9990
##########        Ligand Energy:             0.000000

@<TRIPOS>MOLECULE
 ZINC000433235347      none
   46    48     0     0     0



@<TRIPOS>ATOM
      1 C1        -16.8221    13.5751   -14.8404 C.3        1  LIG1   0.0200
      2 O1        -15.7039    13.8891   -15.6730 O.3        1  LIG1  -0.3200
      3 C2        -15.2278    15.1616   -15.6134 C.ar       1  LIG1   0.1200
      4 C3        -14.2345    15.4890   -14.7054 C.ar       1  LIG1  -0.1700
      5 C4        -13.7513    16.7833   -14.6452 C.ar       1  LIG1  -0.0700
      6 C5        -14.2575    17.7543   -15.4903 C.ar       1  LIG1  -0.0500
      7 Cl1       -13.6465    19.3772   -15.4096 Cl         1  LIG1  -0.0500
      8 C6        -15.2495    17.4348   -16.4002 C.ar       1  LIG1  -0.0800
      9 C7        -15.7341    16.1373   -16.4694 C.ar       1  LIG1   0.1100
     10 N1        -16.7384    15.8109   -17.3905 N.am       1  LIG1  -0.6300
     11 C8        -16.8194    16.4724   -18.5620 C.2        1  LIG1   0.5000
     12 O2        -16.0228    17.3502   -18.8189 O.2        1  LIG1  -0.5100
     13 C9        -17.8994    16.1214   -19.5524 C.3        1  LIG1  -0.0300
     14 N2        -19.2162    16.3299   -18.9354 N.4        1  LIG1  -0.3800
     15 H1        -19.3064    15.7425   -18.1199 H          1  LIG1   0.4300
     16 C10       -20.2810    15.9965   -19.9096 C.3        1  LIG1   0.0200
     17 C11       -21.3789    17.0389   -19.6562 C.3        1  LIG1  -0.1100
     18 C12       -22.4340    17.1896   -20.7442 C.3        1  LIG1  -0.1200
     19 C13       -23.2830    16.1934   -19.9318 C.3        1  LIG1  -0.1500
     20 C14       -22.4855    16.6357   -18.6902 C.3        1  LIG1  -0.1300
     21 C15       -20.5893    18.3074   -19.2941 C.3        1  LIG1  -0.1200
     22 C16       -19.3631    17.7454   -18.5459 C.3        1  LIG1   0.0200
     23 H2        -18.4696    18.3023   -18.8280 H          1  LIG1   0.1400
     24 C17       -19.5839    17.8471   -17.0354 C.3        1  LIG1  -0.1800
     25 H3        -17.1004    12.5312   -14.9844 H          1  LIG1   0.0600
     26 H4        -16.5553    13.7394   -13.7965 H          1  LIG1   0.0600
     27 H5        -17.6635    14.2154   -15.1055 H          1  LIG1   0.1100
     28 H6        -13.8374    14.7332   -14.0438 H          1  LIG1   0.1500
     29 H7        -12.9770    17.0368   -13.9362 H          1  LIG1   0.1500
     30 H8        -15.6435    18.1946   -17.0589 H          1  LIG1   0.1600
     31 H9        -17.3754    15.1088   -17.1848 H          1  LIG1   0.4300
     32 H10       -17.8059    16.7575   -20.4327 H          1  LIG1   0.1600
     33 H11       -17.7973    15.0768   -19.8464 H          1  LIG1   0.1600
     34 H12       -19.9039    16.0818   -20.9288 H          1  LIG1   0.1300
     35 H13       -20.6618    14.9915   -19.7272 H          1  LIG1   0.1500
     36 H14       -22.8657    18.1890   -20.8003 H          1  LIG1   0.1000
     37 H15       -22.1196    16.8070   -21.7152 H          1  LIG1   0.0800
     38 H16       -24.3398    16.4563   -19.8874 H          1  LIG1   0.0800
     39 H17       -23.1167    15.1523   -20.2084 H          1  LIG1   0.0900
     40 H18       -22.2119    15.8131   -18.0295 H          1  LIG1   0.0800
     41 H19       -22.9318    17.4769   -18.1599 H          1  LIG1   0.1000
     42 H20       -20.2804    18.8397   -20.1937 H          1  LIG1   0.1000
     43 H21       -21.1768    18.9552   -18.6436 H          1  LIG1   0.1200
     44 H22       -19.6917    18.8945   -16.7537 H          1  LIG1   0.0800
     45 H23       -20.4879    17.3025   -16.7629 H          1  LIG1   0.0800
     46 H24       -18.7293    17.4166   -16.5134 H          1  LIG1   0.1100
@<TRIPOS>BOND
     1    1    2 1
     2    1   25 1
     3    1   26 1
     4    1   27 1
     5    2    3 1
     6    3    9 ar
     7    3    4 ar
     8    4    5 ar
     9    4   28 1
    10    5    6 ar
    11    5   29 1
    12    6    7 1
    13    6    8 ar
    14    8    9 ar
    15    8   30 1
    16    9   10 1
    17   10   11 am
    18   10   31 1
    19   11   12 2
    20   11   13 1
    21   13   14 1
    22   13   32 1
    23   13   33 1
    24   14   15 1
    25   14   22 1
    26   14   16 1
    27   16   17 1
    28   16   34 1
    29   16   35 1
    30   17   20 1
    31   17   18 1
    32   17   21 1
    33   18   19 1
    34   18   36 1
    35   18   37 1
    36   19   20 1
    37   19   38 1
    38   19   39 1
    39   20   40 1
    40   20   41 1
    41   21   22 1
    42   21   42 1
    43   21   43 1
    44   22   23 1
    45   22   24 1
    46   24   44 1
    47   24   45 1
    48   24   46 1
##########                 Name:     ZINC000657781921
##########          Protonation:                 none
##########               SMILES:   COC1=CC=CC(C2([NH2+]CC3=CN(C4=CC=CC=C4)N=N3)CCC2)=C1
##########            Long Name:   NO_LONG_NAME
##########          FlexRecCode: 1
##########               Number:                11381
##########   Ligand Source File: /nfs/db/export/3D/EG/ADMO/EGADMO.xapr.db2.gz
##########                 Rank:                    1
##########               Setnum:                   54
##########             Matchnum:                    1
##########                Cloud:                    1
##########        Electrostatic:           -37.919102
##########                 Gist:             0.000000
##########        Van der Waals:           -30.765184
##########  Ligand Polar Desolv:            11.118417
########## Ligand Apolar Desolv:            -4.992916
##########      Internal Energy:             0.000000
##########      Receptor Energy:             0.000000
########## Receptor Desolvation:             0.000000
########## Receptor Hydrophobic:             0.000000
##########         Total Energy:           -62.558788
##########        Ligand Charge:             1.000000
##########            Arbitrary:    +999.9990
##########        Ligand Energy:             0.000000

@<TRIPOS>MOLECULE
 ZINC000657781921      none
   48    51     0     0     0



@<TRIPOS>ATOM
      1 C1        -17.3102    22.0368   -23.5274 C.3        1  LIG1   0.0200
      2 O1        -18.0487    21.4792   -22.4385 O.3        1  LIG1  -0.3100
      3 C2        -17.9507    20.1371   -22.2495 C.ar       1  LIG1   0.1500
      4 C3        -17.1555    19.3732   -23.0911 C.ar       1  LIG1  -0.1900
      5 C4        -17.0571    18.0089   -22.8965 C.ar       1  LIG1  -0.0600
      6 C5        -17.7506    17.4049   -21.8645 C.ar       1  LIG1  -0.1300
      7 C6        -18.5444    18.1640   -21.0243 C.ar       1  LIG1  -0.0700
      8 C7        -19.2995    17.5023   -19.9005 C.3        1  LIG1   0.0600
      9 N1        -18.4221    17.0476   -18.8135 N.4        1  LIG1  -0.4900
     10 H1        -18.9779    16.6143   -18.0915 H          1  LIG1   0.4300
     11 H2        -17.7587    16.3785   -19.1744 H          1  LIG1   0.4300
     12 C8        -17.7013    18.1981   -18.2525 C.3        1  LIG1   0.0900
     13 C9        -16.8011    17.7317   -17.1375 C.2        1  LIG1  -0.1000
     14 C10       -16.6487    16.4605   -16.6981 C.2        1  LIG1   0.0000
     15 N2        -15.7407    16.5185   -15.6857 N.pl3      1  LIG1  -0.2200
     16 C11       -15.2761    15.4301   -14.9332 C.ar       1  LIG1   0.0900
     17 C12       -14.3486    15.6304   -13.9199 C.ar       1  LIG1  -0.1100
     18 C13       -13.8928    14.5566   -13.1804 C.ar       1  LIG1  -0.1000
     19 C14       -14.3595    13.2828   -13.4487 C.ar       1  LIG1  -0.0900
     20 C15       -15.2830    13.0801   -14.4576 C.ar       1  LIG1  -0.1000
     21 C16       -15.7471    14.1510   -15.1964 C.ar       1  LIG1  -0.0900
     22 N3        -15.3822    17.7463   -15.5394 N.2        1  LIG1  -0.0500
     23 N4        -15.9917    18.4921   -16.3917 N.2        1  LIG1  -0.2400
     24 C17       -20.5156    18.3095   -19.4162 C.3        1  LIG1  -0.1300
     25 C18       -21.2612    16.9693   -19.3034 C.3        1  LIG1  -0.1600
     26 C19       -20.2975    16.4327   -20.3748 C.3        1  LIG1  -0.1200
     27 C20       -18.6412    19.5292   -21.2108 C.ar       1  LIG1  -0.1700
     28 H3        -17.4762    23.1133   -23.5657 H          1  LIG1   0.0600
     29 H4        -16.2480    21.8376   -23.3857 H          1  LIG1   0.0600
     30 H5        -17.6433    21.5843   -24.4615 H          1  LIG1   0.1100
     31 H6        -16.6140    19.8445   -23.8980 H          1  LIG1   0.1400
     32 H7        -16.4381    17.4137   -23.5516 H          1  LIG1   0.1400
     33 H8        -17.6727    16.3383   -21.7143 H          1  LIG1   0.1400
     34 H9        -17.1009    18.6662   -19.0325 H          1  LIG1   0.1500
     35 H10       -18.4180    18.9209   -17.8627 H          1  LIG1   0.1500
     36 H11       -17.1467    15.5790   -17.0742 H          1  LIG1   0.2000
     37 H12       -13.9834    16.6250   -13.7102 H          1  LIG1   0.1400
     38 H13       -13.1710    14.7118   -12.3923 H          1  LIG1   0.1400
     39 H14       -14.0017    12.4447   -12.8692 H          1  LIG1   0.1400
     40 H15       -15.6455    12.0841   -14.6651 H          1  LIG1   0.1500
     41 H16       -16.4686    13.9921   -15.9841 H          1  LIG1   0.1500
     42 H17       -20.3580    18.8035   -18.4575 H          1  LIG1   0.1000
     43 H18       -20.9273    18.9757   -20.1743 H          1  LIG1   0.1300
     44 H19       -21.1474    16.4868   -18.3327 H          1  LIG1   0.0900
     45 H20       -22.2987    17.0177   -19.6341 H          1  LIG1   0.1000
     46 H21       -20.6497    16.5858   -21.3949 H          1  LIG1   0.1300
     47 H22       -19.9638    15.4116   -20.1899 H          1  LIG1   0.0900
     48 H23       -19.2610    20.1217   -20.5542 H          1  LIG1   0.1200
@<TRIPOS>BOND
     1    1    2 1
     2    1   28 1
     3    1   29 1
     4    1   30 1
     5    2    3 1
     6    3   27 ar
     7    3    4 ar
     8    4    5 ar
     9    4   31 1
    10    5    6 ar
    11    5   32 1
    12    6    7 ar
    13    6   33 1
    14    7    8 1
    15    7   27 ar
    16    8   26 1
    17    8    9 1
    18    8   24 1
    19    9   10 1
    20    9   11 1
    21    9   12 1
    22   12   13 1
    23   12   34 1
    24   12   35 1
    25   13   23 1
    26   13   14 2
    27   14   15 1
    28   14   36 1
    29   15   16 1
    30   15   22 1
    31   16   21 ar
    32   16   17 ar
    33   17   18 ar
    34   17   37 1
    35   18   19 ar
    36   18   38 1
    37   19   20 ar
    38   19   39 1
    39   20   21 ar
    40   20   40 1
    41   21   41 1
    42   22   23 2
    43   24   25 1
    44   24   42 1
    45   24   43 1
    46   25   26 1
    47   25   44 1
    48   25   45 1
    49   26   46 1
    50   26   47 1
    51   27   48 1
##########                 Name:     ZINC000648003916
##########          Protonation:                 none
##########               SMILES:   CC1=CC=CC=C1N1C=C(C[N@H+](C)C[C@@H]2CCCCO2)C=N1
##########            Long Name:   NO_LONG_NAME
##########          FlexRecCode: 1
##########               Number:                 2765
##########   Ligand Source File: /nfs/db/export/3D/CG/ADRO/CGADRO.xbwf.db2.gz
##########                 Rank:                    1
##########               Setnum:                   40
##########             Matchnum:                    1
##########                Cloud:                    1
##########        Electrostatic:           -35.400478
##########                 Gist:             0.000000
##########        Van der Waals:           -33.433685
##########  Ligand Polar Desolv:            12.259494
########## Ligand Apolar Desolv:            -6.468063
##########      Internal Energy:             0.000000
##########      Receptor Energy:             0.000000
########## Receptor Desolvation:             0.000000
########## Receptor Hydrophobic:             0.000000
##########         Total Energy:           -63.042736
##########        Ligand Charge:             1.000000
##########            Arbitrary:    +999.9990
##########        Ligand Energy:             0.000000

@<TRIPOS>MOLECULE
 ZINC000648003916      none
   48    50     0     0     0



@<TRIPOS>ATOM
      1 C1        -13.1682    15.0075   -13.3549 C.3        1  LIG1  -0.1100
      2 C2        -14.1429    13.8847   -13.6006 C.ar       1  LIG1  -0.0600
      3 C3        -14.0587    12.7219   -12.8602 C.ar       1  LIG1  -0.1000
      4 C4        -14.9528    11.6911   -13.0851 C.ar       1  LIG1  -0.0900
      5 C5        -15.9336    11.8211   -14.0507 C.ar       1  LIG1  -0.1100
      6 C6        -16.0232    12.9820   -14.7942 C.ar       1  LIG1  -0.1100
      7 C7        -15.1301    14.0204   -14.5675 C.ar       1  LIG1   0.1100
      8 N1        -15.2185    15.1997   -15.3203 N.pl3      1  LIG1  -0.3000
      9 C8        -16.1306    15.4625   -16.2834 C.2        1  LIG1   0.1000
     10 C9        -15.8762    16.7015   -16.7642 C.2        1  LIG1  -0.3100
     11 C10       -16.6455    17.4056   -17.8521 C.3        1  LIG1   0.0900
     12 N2        -17.7318    16.5366   -18.3245 N.4        1  LIG1  -0.3800
     13 H1        -18.1507    16.0640   -17.5376 H          1  LIG1   0.4300
     14 C11       -17.1915    15.5429   -19.2617 C.3        1  LIG1  -0.0500
     15 C12       -18.7484    17.3498   -19.0053 C.3        1  LIG1   0.0000
     16 C13       -20.0693    16.5794   -19.0535 C.3        1  LIG1   0.0600
     17 H2        -19.8699    15.5291   -19.2657 H          1  LIG1   0.0800
     18 C14       -20.9605    17.1624   -20.1533 C.3        1  LIG1  -0.1500
     19 C15       -22.3036    16.4257   -20.1553 C.3        1  LIG1  -0.1300
     20 C16       -22.9404    16.5442   -18.7672 C.3        1  LIG1  -0.1600
     21 C17       -21.9727    15.9852   -17.7209 C.3        1  LIG1   0.0600
     22 O1        -20.7336    16.6932   -17.7933 O.3        1  LIG1  -0.3900
     23 C18       -14.7728    17.2137   -16.0729 C.2        1  LIG1   0.0700
     24 N3        -14.3814    16.3169   -15.2037 N.2        1  LIG1  -0.2600
     25 H3        -12.4735    14.7195   -12.5659 H          1  LIG1   0.0800
     26 H4        -12.6134    15.2138   -14.2702 H          1  LIG1   0.0700
     27 H5        -13.7129    15.9014   -13.0509 H          1  LIG1   0.0600
     28 H6        -13.2936    12.6173   -12.1053 H          1  LIG1   0.1400
     29 H7        -14.8846    10.7824   -12.5053 H          1  LIG1   0.1400
     30 H8        -16.6301    11.0143   -14.2243 H          1  LIG1   0.1400
     31 H9        -16.7896    13.0831   -15.5484 H          1  LIG1   0.1300
     32 H10       -16.9200    14.8020   -16.6106 H          1  LIG1   0.1800
     33 H11       -17.0656    18.3314   -17.4593 H          1  LIG1   0.1400
     34 H12       -15.9758    17.6335   -18.6814 H          1  LIG1   0.1300
     35 H13       -17.9975    14.8982   -19.6122 H          1  LIG1   0.1200
     36 H14       -16.7390    16.0534   -20.1117 H          1  LIG1   0.1200
     37 H15       -16.4372    14.9395   -18.7565 H          1  LIG1   0.1200
     38 H16       -18.8916    18.2830   -18.4607 H          1  LIG1   0.1400
     39 H17       -18.4181    17.5688   -20.0207 H          1  LIG1   0.1400
     40 H18       -21.1268    18.2227   -19.9633 H          1  LIG1   0.0800
     41 H19       -20.4746    17.0365   -21.1209 H          1  LIG1   0.0800
     42 H20       -22.9636    16.8729   -20.8986 H          1  LIG1   0.0800
     43 H21       -22.1425    15.3745   -20.3940 H          1  LIG1   0.0700
     44 H22       -23.1469    17.5922   -18.5493 H          1  LIG1   0.0800
     45 H23       -23.8704    15.9763   -18.7435 H          1  LIG1   0.0800
     46 H24       -22.4028    16.1060   -16.7266 H          1  LIG1   0.1100
     47 H25       -21.7985    14.9270   -17.9157 H          1  LIG1   0.0600
     48 H26       -14.3241    18.1840   -16.2268 H          1  LIG1   0.2000
@<TRIPOS>BOND
     1    1    2 1
     2    1   25 1
     3    1   26 1
     4    1   27 1
     5    2    7 ar
     6    2    3 ar
     7    3    4 ar
     8    3   28 1
     9    4    5 ar
    10    4   29 1
    11    5    6 ar
    12    5   30 1
    13    6    7 ar
    14    6   31 1
    15    7    8 1
    16    8   24 1
    17    8    9 1
    18    9   10 2
    19    9   32 1
    20   10   11 1
    21   10   23 1
    22   11   12 1
    23   11   33 1
    24   11   34 1
    25   12   13 1
    26   12   14 1
    27   12   15 1
    28   14   35 1
    29   14   36 1
    30   14   37 1
    31   15   16 1
    32   15   38 1
    33   15   39 1
    34   16   17 1
    35   16   22 1
    36   16   18 1
    37   18   19 1
    38   18   40 1
    39   18   41 1
    40   19   20 1
    41   19   42 1
    42   19   43 1
    43   20   21 1
    44   20   44 1
    45   20   45 1
    46   21   22 1
    47   21   46 1
    48   21   47 1
    49   23   24 2
    50   23   48 1
##########                 Name:     ZINC000339791488
##########          Protonation:                 none
##########               SMILES:   CC1=NN(C2=CC=C(Cl)C=C2)C=C1C[NH2+][C@@H](C)C1=CNN=C1
##########            Long Name:   NO_LONG_NAME
##########          FlexRecCode: 1
##########               Number:                 9584
##########   Ligand Source File: /nfs/db/export/3D/DG/ADRO/DGADRO.xbwz.db2.gz
##########                 Rank:                    1
##########               Setnum:                    9
##########             Matchnum:                    1
##########                Cloud:                    1
##########        Electrostatic:           -38.322350
##########                 Gist:             0.000000
##########        Van der Waals:           -34.997238
##########  Ligand Polar Desolv:            15.456885
########## Ligand Apolar Desolv:            -4.588492
##########      Internal Energy:             0.000000
##########      Receptor Energy:             0.000000
########## Receptor Desolvation:             0.000000
########## Receptor Hydrophobic:             0.000000
##########         Total Energy:           -62.451195
##########        Ligand Charge:             1.000000
##########            Arbitrary:    +999.9990
##########        Ligand Energy:             0.000000

@<TRIPOS>MOLECULE
 ZINC000339791488      none
   41    43     0     0     0



@<TRIPOS>ATOM
      1 C1        -14.6802    18.8286   -16.4256 C.3        1  LIG1  -0.0900
      2 C2        -15.1312    17.4011   -16.2521 C.2        1  LIG1   0.1000
      3 N1        -14.7349    16.5802   -15.3129 N.2        1  LIG1  -0.2700
      4 N2        -15.3853    15.3537   -15.5002 N.pl3      1  LIG1  -0.3000
      5 C3        -15.2339    14.2094   -14.7043 C.ar       1  LIG1   0.1400
      6 C4        -15.9388    13.0526   -15.0083 C.ar       1  LIG1  -0.1200
      7 C5        -15.7880    11.9267   -14.2228 C.ar       1  LIG1  -0.0800
      8 C6        -14.9354    11.9511   -13.1331 C.ar       1  LIG1  -0.0300
      9 Cl1       -14.7479    10.5343   -12.1476 Cl         1  LIG1  -0.0400
     10 C7        -14.2316    13.1029   -12.8280 C.ar       1  LIG1  -0.0800
     11 C8        -14.3743    14.2294   -13.6142 C.ar       1  LIG1  -0.0900
     12 C9        -16.1849    15.4687   -16.5846 C.2        1  LIG1   0.1100
     13 C10       -16.0502    16.7271   -17.0638 C.2        1  LIG1  -0.3100
     14 C11       -16.7573    17.2984   -18.2658 C.3        1  LIG1   0.0800
     15 N3        -18.1798    16.9354   -18.2154 N.4        1  LIG1  -0.5100
     16 H1        -18.2707    15.9305   -18.2179 H          1  LIG1   0.4200
     17 H2        -18.5925    17.3085   -17.3737 H          1  LIG1   0.4300
     18 C12       -18.8689    17.4923   -19.3872 C.3        1  LIG1   0.1200
     19 H3        -18.4904    18.4943   -19.5892 H          1  LIG1   0.1400
     20 C13       -18.6152    16.5967   -20.6014 C.3        1  LIG1  -0.1800
     21 C14       -20.3495    17.5602   -19.1139 C.2        1  LIG1  -0.3100
     22 C15       -21.0499    16.7262   -18.3110 C.2        1  LIG1   0.1200
     23 N4        -22.3402    17.1208   -18.3336 N.pl3      1  LIG1  -0.4600
     24 N5        -22.4359    18.2339   -19.1785 N.2        1  LIG1  -0.2600
     25 C16       -21.2412    18.5002   -19.6409 C.2        1  LIG1   0.0500
     26 H4        -13.9609    19.0796   -15.6460 H          1  LIG1   0.1000
     27 H5        -14.2121    18.9454   -17.4031 H          1  LIG1   0.0900
     28 H6        -15.5411    19.4931   -16.3531 H          1  LIG1   0.0700
     29 H7        -16.6049    13.0334   -15.8583 H          1  LIG1   0.1400
     30 H8        -16.3362    11.0267   -14.4589 H          1  LIG1   0.1500
     31 H9        -13.5670    13.1197   -11.9768 H          1  LIG1   0.1500
     32 H10       -13.8249    15.1281   -13.3756 H          1  LIG1   0.1500
     33 H11       -16.8205    14.6964   -16.9921 H          1  LIG1   0.1900
     34 H12       -16.6589    18.3840   -18.2632 H          1  LIG1   0.1400
     35 H13       -16.3114    16.8954   -19.1751 H          1  LIG1   0.1400
     36 H14       -19.1265    17.0099   -21.4709 H          1  LIG1   0.1000
     37 H15       -17.5444    16.5475   -20.7992 H          1  LIG1   0.0800
     38 H16       -18.9938    15.5948   -20.3994 H          1  LIG1   0.0800
     39 H17       -20.6483    15.8940   -17.7519 H          1  LIG1   0.1900
     40 H18       -23.0722    16.7065   -17.8505 H          1  LIG1   0.4500
     41 H19       -20.9886    19.3023   -20.3184 H          1  LIG1   0.1900
@<TRIPOS>BOND
     1    1    2 1
     2    1   26 1
     3    1   27 1
     4    1   28 1
     5    2   13 1
     6    2    3 2
     7    3    4 1
     8    4    5 1
     9    4   12 1
    10    5   11 ar
    11    5    6 ar
    12    6    7 ar
    13    6   29 1
    14    7    8 ar
    15    7   30 1
    16    8    9 1
    17    8   10 ar
    18   10   11 ar
    19   10   31 1
    20   11   32 1
    21   12   13 2
    22   12   33 1
    23   13   14 1
    24   14   15 1
    25   14   34 1
    26   14   35 1
    27   15   16 1
    28   15   17 1
    29   15   18 1
    30   18   19 1
    31   18   20 1
    32   18   21 1
    33   20   36 1
    34   20   37 1
    35   20   38 1
    36   21   25 1
    37   21   22 2
    38   22   23 1
    39   22   39 1
    40   23   24 1
    41   23   40 1
    42   24   25 2
    43   25   41 1
##########                 Name:     ZINC000349313771
##########          Protonation:                 none
##########               SMILES:   C[C@@H](CO)[N@@H+](C)CC1=CN(C2=CC=CC=C2)N=C1C1=CC=CS1
##########            Long Name:   NO_LONG_NAME
##########          FlexRecCode: 1
##########               Number:                  233
##########   Ligand Source File: /nfs/db/export/3D/EG/ADMO/EGADMO.xbor.db2.gz
##########                 Rank:                    1
##########               Setnum:                  111
##########             Matchnum:                    1
##########                Cloud:                    1
##########        Electrostatic:           -39.130581
##########                 Gist:             0.000000
##########        Van der Waals:           -33.663166
##########  Ligand Polar Desolv:            11.921110
########## Ligand Apolar Desolv:            -5.146017
##########      Internal Energy:             0.000000
##########      Receptor Energy:             0.000000
########## Receptor Desolvation:             0.000000
########## Receptor Hydrophobic:             0.000000
##########         Total Energy:           -66.018654
##########        Ligand Charge:             1.000000
##########            Arbitrary:    +999.9990
##########        Ligand Energy:             0.000000

@<TRIPOS>MOLECULE
 ZINC000349313771      none
   45    47     0     0     0



@<TRIPOS>ATOM
      1 C1        -19.7051    18.2134   -18.0278 C.3        1  LIG1  -0.1800
      2 C2        -18.7805    17.5457   -19.0477 C.3        1  LIG1   0.0300
      3 H1        -19.3624    16.8780   -19.6832 H          1  LIG1   0.1500
      4 C3        -18.1140    18.6189   -19.9108 C.3        1  LIG1   0.0500
      5 O1        -17.2503    17.9955   -20.8635 O.3        1  LIG1  -0.5700
      6 N1        -17.7488    16.7742   -18.3419 N.4        1  LIG1  -0.3800
      7 H2        -18.1617    16.3076   -17.5483 H          1  LIG1   0.4300
      8 C4        -17.1751    15.7752   -19.2534 C.3        1  LIG1  -0.0500
      9 C5        -16.6895    17.6811   -17.8800 C.3        1  LIG1   0.0800
     10 C6        -15.9110    17.0208   -16.7715 C.2        1  LIG1  -0.3000
     11 C7        -16.1322    15.7863   -16.2711 C.2        1  LIG1   0.1100
     12 N2        -15.2199    15.5639   -15.2888 N.pl3      1  LIG1  -0.2900
     13 C8        -15.1083    14.3999   -14.5176 C.ar       1  LIG1   0.1300
     14 C9        -14.1291    14.3060   -13.5375 C.ar       1  LIG1  -0.1300
     15 C10       -14.0219    13.1571   -12.7784 C.ar       1  LIG1  -0.0900
     16 C11       -14.8882    12.1010   -12.9938 C.ar       1  LIG1  -0.1100
     17 C12       -15.8644    12.1914   -13.9692 C.ar       1  LIG1  -0.0900
     18 C13       -15.9803    13.3399   -14.7276 C.ar       1  LIG1  -0.1100
     19 N3        -14.4102    16.7020   -15.1827 N.2        1  LIG1  -0.2500
     20 C14       -14.8180    17.5804   -16.0769 C.2        1  LIG1   0.1700
     21 C15       -14.2378    18.9211   -16.3056 C.2        1  LIG1  -0.1600
     22 C16       -13.6315    19.6768   -15.3687 C.2        1  LIG1  -0.0700
     23 C17       -13.1684    20.8953   -15.8218 C.2        1  LIG1  -0.1300
     24 C18       -13.3906    21.1394   -17.1161 C.2        1  LIG1  -0.1800
     25 S1        -14.2251    19.7733   -17.8442 S.3        1  LIG1   0.1200
     26 H3        -19.1233    18.8811   -17.3924 H          1  LIG1   0.1000
     27 H4        -20.4707    18.7860   -18.5516 H          1  LIG1   0.0800
     28 H5        -20.1802    17.4489   -17.4129 H          1  LIG1   0.0900
     29 H6        -18.8795    19.1913   -20.4345 H          1  LIG1   0.0700
     30 H7        -17.5322    19.2866   -19.2754 H          1  LIG1   0.0900
     31 H8        -17.7013    17.3862   -21.4638 H          1  LIG1   0.4000
     32 H9        -16.4095    15.2027   -18.7297 H          1  LIG1   0.1200
     33 H10       -17.9611    15.1024   -19.5962 H          1  LIG1   0.1300
     34 H11       -16.7290    16.2793   -20.1108 H          1  LIG1   0.1200
     35 H12       -16.0193    17.9089   -18.7089 H          1  LIG1   0.1400
     36 H13       -17.1368    18.6038   -17.5102 H          1  LIG1   0.1300
     37 H14       -16.8991    15.0978   -16.5939 H          1  LIG1   0.1900
     38 H15       -13.4519    15.1301   -13.3692 H          1  LIG1   0.1300
     39 H16       -13.2606    13.0833   -12.0160 H          1  LIG1   0.1400
     40 H17       -14.8019    11.2034   -12.3995 H          1  LIG1   0.1400
     41 H18       -16.5393    11.3647   -14.1353 H          1  LIG1   0.1400
     42 H19       -16.7432    13.4101   -15.4888 H          1  LIG1   0.1400
     43 H20       -13.5177    19.3545   -14.3442 H          1  LIG1   0.1500
     44 H21       -12.6636    21.5997   -15.1772 H          1  LIG1   0.1500
     45 H22       -13.0985    22.0387   -17.6378 H          1  LIG1   0.1800
@<TRIPOS>BOND
     1    1    2 1
     2    1   26 1
     3    1   27 1
     4    1   28 1
     5    2    3 1
     6    2    4 1
     7    2    6 1
     8    4    5 1
     9    4   29 1
    10    4   30 1
    11    5   31 1
    12    6    7 1
    13    6    8 1
    14    6    9 1
    15    8   32 1
    16    8   33 1
    17    8   34 1
    18    9   10 1
    19    9   35 1
    20    9   36 1
    21   10   20 1
    22   10   11 2
    23   11   12 1
    24   11   37 1
    25   12   13 1
    26   12   19 1
    27   13   18 ar
    28   13   14 ar
    29   14   15 ar
    30   14   38 1
    31   15   16 ar
    32   15   39 1
    33   16   17 ar
    34   16   40 1
    35   17   18 ar
    36   17   41 1
    37   18   42 1
    38   19   20 2
    39   20   21 1
    40   21   25 1
    41   21   22 2
    42   22   23 1
    43   22   43 1
    44   23   24 2
    45   23   44 1
    46   24   25 1
    47   24   45 1
##########                 Name:     ZINC000518761278
##########          Protonation:                 none
##########               SMILES:   COC1=CC=CC=C1/C=C/C[NH2+][C@@H](C)CC1=CC=CC=C1C
##########            Long Name:   NO_LONG_NAME
##########          FlexRecCode: 1
##########               Number:                 1873
##########   Ligand Source File: /nfs/db/export/3D/CI/ADRO/CIADRO.xce.db2.gz
##########                 Rank:                    1
##########               Setnum:                   48
##########             Matchnum:                    1
##########                Cloud:                    1
##########        Electrostatic:           -35.193443
##########                 Gist:             0.000000
##########        Van der Waals:           -33.901360
##########  Ligand Polar Desolv:            12.798140
########## Ligand Apolar Desolv:            -6.603159
##########      Internal Energy:             0.000000
##########      Receptor Energy:             0.000000
########## Receptor Desolvation:             0.000000
########## Receptor Hydrophobic:             0.000000
##########         Total Energy:           -62.899822
##########        Ligand Charge:             1.000000
##########            Arbitrary:    +999.9990
##########        Ligand Energy:             0.000000

@<TRIPOS>MOLECULE
 ZINC000518761278      none
   48    49     0     0     0



@<TRIPOS>ATOM
      1 C1        -16.2591    11.5499   -15.7841 C.3        1  LIG1   0.0200
      2 O1        -16.0322    12.9383   -15.5335 O.3        1  LIG1  -0.3200
      3 C2        -15.2027    13.2517   -14.5044 C.ar       1  LIG1   0.1600
      4 C3        -14.6144    12.2465   -13.7549 C.ar       1  LIG1  -0.2100
      5 C4        -13.7704    12.5666   -12.7078 C.ar       1  LIG1  -0.0500
      6 C5        -13.5074    13.8901   -12.4013 C.ar       1  LIG1  -0.1600
      7 C6        -14.0863    14.9029   -13.1386 C.ar       1  LIG1  -0.0600
      8 C7        -14.9346    14.5922   -14.2011 C.ar       1  LIG1  -0.1300
      9 C8        -15.5569    15.6718   -14.9944 C.2        1  LIG1   0.0000
     10 C9        -16.8777    15.7779   -15.0486 C.2        1  LIG1  -0.2700
     11 C10       -17.5127    16.8794   -15.8578 C.3        1  LIG1   0.0400
     12 N1        -17.7398    16.4096   -17.2310 N.4        1  LIG1  -0.5100
     13 H1        -16.8582    16.1511   -17.6482 H          1  LIG1   0.4200
     14 H2        -18.3524    15.6079   -17.2151 H          1  LIG1   0.4300
     15 C11       -18.3587    17.4832   -18.0197 C.3        1  LIG1   0.0300
     16 H3        -19.0990    18.0016   -17.4102 H          1  LIG1   0.1400
     17 C12       -17.2817    18.4739   -18.4662 C.3        1  LIG1  -0.1800
     18 C13       -19.0415    16.8832   -19.2506 C.3        1  LIG1  -0.1000
     19 C14       -20.0632    17.8551   -19.7821 C.ar       1  LIG1  -0.1300
     20 C15       -19.6988    18.7898   -20.7329 C.ar       1  LIG1  -0.1300
     21 C16       -20.6362    19.6814   -21.2204 C.ar       1  LIG1  -0.1100
     22 C17       -21.9378    19.6379   -20.7574 C.ar       1  LIG1  -0.1000
     23 C18       -22.3024    18.7024   -19.8070 C.ar       1  LIG1  -0.1100
     24 C19       -21.3664    17.8082   -19.3227 C.ar       1  LIG1  -0.0700
     25 C20       -21.7639    16.7885   -18.2867 C.3        1  LIG1  -0.1300
     26 H4        -16.9380    11.4395   -16.6297 H          1  LIG1   0.1100
     27 H5        -15.3114    11.0623   -16.0130 H          1  LIG1   0.0600
     28 H6        -16.7009    11.0887   -14.9008 H          1  LIG1   0.0600
     29 H7        -14.8155    11.2114   -13.9883 H          1  LIG1   0.1400
     30 H8        -13.3142    11.7795   -12.1258 H          1  LIG1   0.1300
     31 H9        -12.8469    14.1314   -11.5817 H          1  LIG1   0.1300
     32 H10       -13.8791    15.9346   -12.8958 H          1  LIG1   0.1300
     33 H11       -14.9362    16.3749   -15.5301 H          1  LIG1   0.1300
     34 H12       -17.4984    15.0750   -14.5128 H          1  LIG1   0.1400
     35 H13       -18.4649    17.1587   -15.4071 H          1  LIG1   0.1300
     36 H14       -16.8509    17.7454   -15.8749 H          1  LIG1   0.1300
     37 H15       -17.7409    19.2705   -19.0515 H          1  LIG1   0.1100
     38 H16       -16.7952    18.9013   -17.5893 H          1  LIG1   0.0800
     39 H17       -16.5415    17.9556   -19.0758 H          1  LIG1   0.0800
     40 H18       -18.2948    16.6843   -20.0194 H          1  LIG1   0.1200
     41 H19       -19.5354    15.9518   -18.9740 H          1  LIG1   0.1000
     42 H20       -18.6818    18.8236   -21.0947 H          1  LIG1   0.1200
     43 H21       -20.3513    20.4121   -21.9629 H          1  LIG1   0.1300
     44 H22       -22.6698    20.3349   -21.1377 H          1  LIG1   0.1300
     45 H23       -23.3194    18.6687   -19.4449 H          1  LIG1   0.1300
     46 H24       -22.8217    16.9037   -18.0506 H          1  LIG1   0.0700
     47 H25       -21.5858    15.7861   -18.6764 H          1  LIG1   0.0700
     48 H26       -21.1716    16.9378   -17.3839 H          1  LIG1   0.0800
@<TRIPOS>BOND
     1    1    2 1
     2    1   26 1
     3    1   27 1
     4    1   28 1
     5    2    3 1
     6    3    8 ar
     7    3    4 ar
     8    4    5 ar
     9    4   29 1
    10    5    6 ar
    11    5   30 1
    12    6    7 ar
    13    6   31 1
    14    7    8 ar
    15    7   32 1
    16    8    9 1
    17    9   10 2
    18    9   33 1
    19   10   11 1
    20   10   34 1
    21   11   12 1
    22   11   35 1
    23   11   36 1
    24   12   13 1
    25   12   14 1
    26   12   15 1
    27   15   16 1
    28   15   17 1
    29   15   18 1
    30   17   37 1
    31   17   38 1
    32   17   39 1
    33   18   19 1
    34   18   40 1
    35   18   41 1
    36   19   24 ar
    37   19   20 ar
    38   20   21 ar
    39   20   42 1
    40   21   22 ar
    41   21   43 1
    42   22   23 ar
    43   22   44 1
    44   23   24 ar
    45   23   45 1
    46   24   25 1
    47   25   46 1
    48   25   47 1
    49   25   48 1
##########                 Name:     ZINC000359535117
##########          Protonation:                 none
##########               SMILES:   COC(=O)C1=CC=C(NC(=O)C[NH2+][C@@H](CO)C2=CC=CC(F)=C2)C=C1
##########            Long Name:   NO_LONG_NAME
##########          FlexRecCode: 1
##########               Number:                 5068
##########   Ligand Source File: /nfs/db/export/3D/ED/ADMO/EDADMO.xbad.db2.gz
##########                 Rank:                    1
##########               Setnum:                  335
##########             Matchnum:                    1
##########                Cloud:                    1
##########        Electrostatic:           -50.719051
##########                 Gist:             0.000000
##########        Van der Waals:           -29.619308
##########  Ligand Polar Desolv:            19.348896
########## Ligand Apolar Desolv:            -2.072491
##########      Internal Energy:             0.000000
##########      Receptor Energy:             0.000000
########## Receptor Desolvation:             0.000000
########## Receptor Hydrophobic:             0.000000
##########         Total Energy:           -63.061958
##########        Ligand Charge:             1.000000
##########            Arbitrary:    +999.9990
##########        Ligand Energy:             0.000000

@<TRIPOS>MOLECULE
 ZINC000359535117      none
   45    46     0     0     0



@<TRIPOS>ATOM
      1 C1        -16.0314    24.0963   -25.7692 C.3        1  LIG1   0.0400
      2 O1        -16.7527    23.1729   -24.9118 O.3        1  LIG1  -0.3600
      3 C2        -16.1386    22.0122   -24.6094 C.2        1  LIG1   0.5000
      4 O2        -15.0300    21.7789   -25.0487 O.2        1  LIG1  -0.5000
      5 C3        -16.8108    21.0264   -23.7428 C.ar       1  LIG1  -0.1200
      6 C4        -16.1724    19.8245   -23.4224 C.ar       1  LIG1  -0.0400
      7 C5        -16.8031    18.9065   -22.6136 C.ar       1  LIG1  -0.1300
      8 C6        -18.0745    19.1736   -22.1149 C.ar       1  LIG1   0.1600
      9 N1        -18.7102    18.2414   -21.2960 N.am       1  LIG1  -0.6500
     10 C7        -17.9799    17.4295   -20.5061 C.2        1  LIG1   0.5000
     11 O3        -16.7698    17.5097   -20.5078 O.2        1  LIG1  -0.5000
     12 C8        -18.6671    16.4219   -19.6208 C.3        1  LIG1  -0.0300
     13 N2        -17.8545    16.1913   -18.4190 N.4        1  LIG1  -0.4900
     14 H1        -18.3145    15.5168   -17.8262 H          1  LIG1   0.4400
     15 H2        -16.9480    15.8394   -18.6883 H          1  LIG1   0.4400
     16 C9        -17.6919    17.4551   -17.6880 C.3        1  LIG1   0.0900
     17 H3        -17.5348    18.2675   -18.3975 H          1  LIG1   0.1600
     18 C10       -18.9507    17.7335   -16.8643 C.3        1  LIG1   0.0500
     19 O4        -19.1566    16.6683   -15.9342 O.3        1  LIG1  -0.5700
     20 C11       -16.5021    17.3540   -16.7685 C.ar       1  LIG1  -0.1200
     21 C12       -16.1435    16.1305   -16.2346 C.ar       1  LIG1  -0.1100
     22 C13       -15.0522    16.0362   -15.3909 C.ar       1  LIG1  -0.0800
     23 C14       -14.3187    17.1654   -15.0805 C.ar       1  LIG1  -0.1200
     24 C15       -14.6768    18.3916   -15.6151 C.ar       1  LIG1   0.1100
     25 F1        -13.9603    19.4963   -15.3123 F          1  LIG1  -0.1200
     26 C16       -15.7665    18.4838   -16.4639 C.ar       1  LIG1  -0.1300
     27 C17       -18.7126    20.3689   -22.4313 C.ar       1  LIG1  -0.1400
     28 C18       -18.0860    21.2936   -23.2356 C.ar       1  LIG1  -0.0300
     29 H4        -16.6369    24.9875   -25.9341 H          1  LIG1   0.1100
     30 H5        -15.0930    24.3779   -25.2916 H          1  LIG1   0.0700
     31 H6        -15.8227    23.6168   -26.7256 H          1  LIG1   0.0700
     32 H7        -15.1858    19.6164   -23.8094 H          1  LIG1   0.1500
     33 H8        -16.3108    17.9777   -22.3660 H          1  LIG1   0.1400
     34 H9        -19.6780    18.1774   -21.2946 H          1  LIG1   0.4200
     35 H10       -19.6464    16.8018   -19.3300 H          1  LIG1   0.1700
     36 H11       -18.7876    15.4841   -20.1633 H          1  LIG1   0.1700
     37 H12       -18.8301    18.6711   -16.3219 H          1  LIG1   0.1000
     38 H13       -19.8113    17.8065   -17.5293 H          1  LIG1   0.0800
     39 H14       -19.2720    15.8018   -16.3478 H          1  LIG1   0.4100
     40 H15       -16.7164    15.2475   -16.4765 H          1  LIG1   0.1300
     41 H16       -14.7731    15.0798   -14.9741 H          1  LIG1   0.1500
     42 H17       -13.4667    17.0917   -14.4209 H          1  LIG1   0.1500
     43 H18       -16.0464    19.4397   -16.8818 H          1  LIG1   0.1500
     44 H19       -19.6992    20.5731   -22.0423 H          1  LIG1   0.1400
     45 H20       -18.5819    22.2212   -23.4809 H          1  LIG1   0.1500
@<TRIPOS>BOND
     1    1    2 1
     2    1   29 1
     3    1   30 1
     4    1   31 1
     5    2    3 1
     6    3    4 2
     7    3    5 1
     8    5   28 ar
     9    5    6 ar
    10    6    7 ar
    11    6   32 1
    12    7    8 ar
    13    7   33 1
    14    8    9 1
    15    8   27 ar
    16    9   10 am
    17    9   34 1
    18   10   11 2
    19   10   12 1
    20   12   13 1
    21   12   35 1
    22   12   36 1
    23   13   14 1
    24   13   15 1
    25   13   16 1
    26   16   17 1
    27   16   18 1
    28   16   20 1
    29   18   19 1
    30   18   37 1
    31   18   38 1
    32   19   39 1
    33   20   26 ar
    34   20   21 ar
    35   21   22 ar
    36   21   40 1
    37   22   23 ar
    38   22   41 1
    39   23   24 ar
    40   23   42 1
    41   24   25 1
    42   24   26 ar
    43   26   43 1
    44   27   28 ar
    45   27   44 1
    46   28   45 1
##########                 Name:     ZINC000570844880
##########          Protonation:                 none
##########               SMILES:   COC1=C2C(=CC=C1)N=CN=C2N[C@@H]1CC[N@@H+](CC2=CC=CC=C2)C1
##########            Long Name:   NO_LONG_NAME
##########          FlexRecCode: 1
##########               Number:                 8789
##########   Ligand Source File: /nfs/db/export/3D/EG/ADMO/EGADMO.xahc.db2.gz
##########                 Rank:                    1
##########               Setnum:                   11
##########             Matchnum:                    1
##########                Cloud:                    1
##########        Electrostatic:           -37.366005
##########                 Gist:             0.000000
##########        Van der Waals:           -39.065304
##########  Ligand Polar Desolv:            16.962137
########## Ligand Apolar Desolv:            -6.768953
##########      Internal Energy:             0.000000
##########      Receptor Energy:             0.000000
########## Receptor Desolvation:             0.000000
########## Receptor Hydrophobic:             0.000000
##########         Total Energy:           -66.238121
##########        Ligand Charge:             1.000000
##########            Arbitrary:    +999.9990
##########        Ligand Energy:             0.000000

@<TRIPOS>MOLECULE
 ZINC000570844880      none
   48    51     0     0     0



@<TRIPOS>ATOM
      1 C1        -16.7113    11.6830   -15.8159 C.3        1  LIG1   0.0200
      2 O1        -16.2134    13.0211   -15.7547 O.3        1  LIG1  -0.3300
      3 C2        -15.2791    13.2880   -14.8071 C.ar       1  LIG1   0.1700
      4 C3        -14.7415    14.5793   -14.6841 C.ar       1  LIG1  -0.2100
      5 C4        -13.7673    14.8410   -13.6899 C.ar       1  LIG1   0.2200
      6 C5        -13.3539    13.8061   -12.8426 C.ar       1  LIG1  -0.1400
      7 C6        -13.8906    12.5593   -12.9809 C.ar       1  LIG1  -0.0300
      8 C7        -14.8510    12.2944   -13.9496 C.ar       1  LIG1  -0.2200
      9 N1        -13.2672    16.0825   -13.5898 N.ar       1  LIG1  -0.5400
     10 C8        -13.6754    17.0310   -14.3987 C.ar       1  LIG1   0.3600
     11 N2        -14.5828    16.8323   -15.3414 N.ar       1  LIG1  -0.6000
     12 C9        -15.1412    15.6428   -15.5259 C.ar       1  LIG1   0.4800
     13 N3        -16.0849    15.4489   -16.5120 N.pl3      1  LIG1  -0.7000
     14 C10       -16.4844    16.5649   -17.3730 C.3        1  LIG1   0.1400
     15 H1        -15.6155    17.1668   -17.6388 H          1  LIG1   0.1400
     16 C11       -17.5450    17.4374   -16.6631 C.3        1  LIG1  -0.1600
     17 C12       -18.5184    17.8028   -17.8119 C.3        1  LIG1   0.0000
     18 N4        -18.5639    16.5616   -18.6265 N.4        1  LIG1  -0.3900
     19 H2        -19.1854    15.8895   -18.2021 H          1  LIG1   0.4300
     20 C13       -19.0060    16.8687   -19.9933 C.3        1  LIG1   0.0500
     21 C14       -20.5062    17.0089   -20.0166 C.ar       1  LIG1  -0.1600
     22 C15       -21.3002    15.9017   -20.2504 C.ar       1  LIG1  -0.0900
     23 C16       -22.6764    16.0304   -20.2716 C.ar       1  LIG1  -0.1100
     24 C17       -23.2586    17.2659   -20.0587 C.ar       1  LIG1  -0.0800
     25 C18       -22.4645    18.3729   -19.8240 C.ar       1  LIG1  -0.1100
     26 C19       -21.0885    18.2435   -19.7984 C.ar       1  LIG1  -0.0900
     27 C20       -17.1782    16.0382   -18.6431 C.3        1  LIG1  -0.0200
     28 H3        -17.4494    11.6061   -16.6143 H          1  LIG1   0.0700
     29 H4        -15.8877    10.9976   -16.0154 H          1  LIG1   0.0700
     30 H5        -17.1768    11.4247   -14.8647 H          1  LIG1   0.1000
     31 H6        -12.6115    13.9941   -12.0811 H          1  LIG1   0.1500
     32 H7        -13.5667    11.7660   -12.3236 H          1  LIG1   0.1400
     33 H8        -15.2600    11.2988   -14.0384 H          1  LIG1   0.1400
     34 H9        -13.2523    18.0188   -14.2902 H          1  LIG1   0.2000
     35 H10       -16.4844    14.5738   -16.6358 H          1  LIG1   0.4200
     36 H11       -18.0583    16.8669   -15.8892 H          1  LIG1   0.1000
     37 H12       -17.0888    18.3343   -16.2442 H          1  LIG1   0.1200
     38 H13       -19.5063    18.0408   -17.4178 H          1  LIG1   0.1400
     39 H14       -18.1266    18.6338   -18.3984 H          1  LIG1   0.1400
     40 H15       -18.5486    17.8021   -20.3219 H          1  LIG1   0.1400
     41 H16       -18.7059    16.0620   -20.6622 H          1  LIG1   0.1400
     42 H17       -20.8455    14.9365   -20.4167 H          1  LIG1   0.1300
     43 H18       -23.2968    15.1655   -20.4550 H          1  LIG1   0.1400
     44 H19       -24.3338    17.3665   -20.0760 H          1  LIG1   0.1400
     45 H20       -22.9193    19.3383   -19.6580 H          1  LIG1   0.1400
     46 H21       -20.4681    19.1084   -19.6151 H          1  LIG1   0.1300
     47 H22       -16.6563    16.3973   -19.5299 H          1  LIG1   0.1500
     48 H23       -17.1929    14.9484   -18.6332 H          1  LIG1   0.1400
@<TRIPOS>BOND
     1    1    2 1
     2    1   28 1
     3    1   29 1
     4    1   30 1
     5    2    3 1
     6    3    8 ar
     7    3    4 ar
     8    4   12 ar
     9    4    5 ar
    10    5    6 ar
    11    5    9 ar
    12    6    7 ar
    13    6   31 1
    14    7    8 ar
    15    7   32 1
    16    8   33 1
    17    9   10 ar
    18   10   11 ar
    19   10   34 1
    20   11   12 ar
    21   12   13 1
    22   13   14 1
    23   13   35 1
    24   14   15 1
    25   14   27 1
    26   14   16 1
    27   16   17 1
    28   16   36 1
    29   16   37 1
    30   17   18 1
    31   17   38 1
    32   17   39 1
    33   18   19 1
    34   18   20 1
    35   18   27 1
    36   20   21 1
    37   20   40 1
    38   20   41 1
    39   21   26 ar
    40   21   22 ar
    41   22   23 ar
    42   22   42 1
    43   23   24 ar
    44   23   43 1
    45   24   25 ar
    46   24   44 1
    47   25   26 ar
    48   25   45 1
    49   26   46 1
    50   27   47 1
    51   27   48 1
##########                 Name:     ZINC000647240011
##########          Protonation:                 none
##########               SMILES:   CCCC[C@](C)(CO)[NH2+]CC1=CN(C2=CC=C(F)C=C2Cl)N=N1
##########            Long Name:   NO_LONG_NAME
##########          FlexRecCode: 1
##########               Number:                13195
##########   Ligand Source File: /nfs/db/export/3D/EG/ADRO/EGADRO.xbzw.db2.gz
##########                 Rank:                    1
##########               Setnum:                  441
##########             Matchnum:                    1
##########                Cloud:                    1
##########        Electrostatic:           -44.607624
##########                 Gist:             0.000000
##########        Van der Waals:           -30.755251
##########  Ligand Polar Desolv:            15.949501
########## Ligand Apolar Desolv:            -3.251780
##########      Internal Energy:             0.000000
##########      Receptor Energy:             0.000000
########## Receptor Desolvation:             0.000000
########## Receptor Hydrophobic:             0.000000
##########         Total Energy:           -62.665154
##########        Ligand Charge:             1.000000
##########            Arbitrary:    +999.9990
##########        Ligand Energy:             0.000000

@<TRIPOS>MOLECULE
 ZINC000647240011      none
   46    47     0     0     0



@<TRIPOS>ATOM
      1 C1        -19.1717    20.6923   -22.4799 C.3        1  LIG1  -0.1600
      2 C2        -18.1979    19.9468   -21.5650 C.3        1  LIG1  -0.1300
      3 C3        -18.9569    18.8795   -20.7740 C.3        1  LIG1  -0.1200
      4 C4        -17.9832    18.1339   -19.8592 C.3        1  LIG1  -0.1300
      5 C5        -18.7423    17.0667   -19.0682 C.3        1  LIG1   0.0600
      6 C6        -19.3898    16.0768   -20.0386 C.3        1  LIG1  -0.1800
      7 C7        -19.8274    17.7348   -18.2215 C.3        1  LIG1   0.0500
      8 O1        -20.2150    16.8557   -17.1636 O.3        1  LIG1  -0.5800
      9 N1        -17.8074    16.3508   -18.1898 N.4        1  LIG1  -0.5000
     10 H1        -18.3080    15.6469   -17.6682 H          1  LIG1   0.4300
     11 H2        -17.0918    15.9101   -18.7482 H          1  LIG1   0.4300
     12 C8        -17.1856    17.3011   -17.2581 C.3        1  LIG1   0.0900
     13 C9        -16.2265    16.5668   -16.3570 C.2        1  LIG1  -0.0900
     14 C10       -16.4471    15.3881   -15.7286 C.2        1  LIG1   0.0000
     15 N2        -15.3108    15.1150   -15.0313 N.pl3      1  LIG1  -0.2300
     16 C11       -15.0886    13.9857   -14.2283 C.ar       1  LIG1   0.0900
     17 C12       -15.7067    12.7821   -14.5356 C.ar       1  LIG1  -0.0700
     18 C13       -15.4864    11.6714   -13.7445 C.ar       1  LIG1  -0.1300
     19 C14       -14.6495    11.7579   -12.6449 C.ar       1  LIG1   0.1500
     20 F1        -14.4352    10.6701   -11.8728 F          1  LIG1  -0.1100
     21 C15       -14.0311    12.9579   -12.3356 C.ar       1  LIG1  -0.1300
     22 C16       -14.2447    14.0701   -13.1276 C.ar       1  LIG1   0.0100
     23 Cl1       -13.4698    15.5745   -12.7401 Cl         1  LIG1   0.0000
     24 N3        -14.4752    16.0724   -15.2366 N.2        1  LIG1  -0.0300
     25 N4        -14.9881    16.9488   -16.0259 N.2        1  LIG1  -0.2400
     26 H3        -18.6308    21.4526   -23.0434 H          1  LIG1   0.0600
     27 H4        -19.6329    19.9872   -23.1712 H          1  LIG1   0.0600
     28 H5        -19.9447    21.1684   -21.8767 H          1  LIG1   0.0600
     29 H6        -17.4247    19.4708   -22.1682 H          1  LIG1   0.0700
     30 H7        -17.7366    20.6519   -20.8736 H          1  LIG1   0.0700
     31 H8        -19.7300    19.3555   -20.1709 H          1  LIG1   0.0700
     32 H9        -19.4181    18.1743   -21.4654 H          1  LIG1   0.0800
     33 H10       -17.2101    17.6580   -20.4623 H          1  LIG1   0.0900
     34 H11       -17.5220    18.8392   -19.1678 H          1  LIG1   0.1000
     35 H12       -19.9306    15.3165   -19.4750 H          1  LIG1   0.0900
     36 H13       -20.0834    16.6079   -20.6904 H          1  LIG1   0.0900
     37 H14       -18.6166    15.6007   -20.6416 H          1  LIG1   0.1100
     38 H15       -19.4396    18.6620   -17.7996 H          1  LIG1   0.1000
     39 H16       -20.6926    17.9542   -18.8470 H          1  LIG1   0.0700
     40 H17       -19.4931    16.6174   -16.5660 H          1  LIG1   0.4100
     41 H18       -16.6447    18.0615   -17.8216 H          1  LIG1   0.1500
     42 H19       -17.9587    17.7772   -16.6549 H          1  LIG1   0.1500
     43 H20       -17.3433    14.7867   -15.7717 H          1  LIG1   0.2100
     44 H21       -16.3600    12.7137   -15.3930 H          1  LIG1   0.1600
     45 H22       -15.9678    10.7346   -13.9837 H          1  LIG1   0.1600
     46 H23       -13.3789    13.0236   -11.4773 H          1  LIG1   0.1700
@<TRIPOS>BOND
     1    1    2 1
     2    1   26 1
     3    1   27 1
     4    1   28 1
     5    2    3 1
     6    2   29 1
     7    2   30 1
     8    3    4 1
     9    3   31 1
    10    3   32 1
    11    4    5 1
    12    4   33 1
    13    4   34 1
    14    5    6 1
    15    5    7 1
    16    5    9 1
    17    6   35 1
    18    6   36 1
    19    6   37 1
    20    7    8 1
    21    7   38 1
    22    7   39 1
    23    8   40 1
    24    9   10 1
    25    9   11 1
    26    9   12 1
    27   12   13 1
    28   12   41 1
    29   12   42 1
    30   13   25 1
    31   13   14 2
    32   14   15 1
    33   14   43 1
    34   15   16 1
    35   15   24 1
    36   16   22 ar
    37   16   17 ar
    38   17   18 ar
    39   17   44 1
    40   18   19 ar
    41   18   45 1
    42   19   20 1
    43   19   21 ar
    44   21   22 ar
    45   21   46 1
    46   22   23 1
    47   24   25 2
##########                 Name:     ZINC000641750656
##########          Protonation:                 none
##########               SMILES:   COC[C@@H](CO)[NH2+]CC1=CN(C2=CC=CC=C2)N=C1C1=CC=CC=C1
##########            Long Name:   NO_LONG_NAME
##########          FlexRecCode: 1
##########               Number:                   90
##########   Ligand Source File: /nfs/db/export/3D/EF/ADRO/EFADRO.xafk.db2.gz
##########                 Rank:                    1
##########               Setnum:                  131
##########             Matchnum:                    1
##########                Cloud:                    1
##########        Electrostatic:           -40.311405
##########                 Gist:             0.000000
##########        Van der Waals:           -32.974056
##########  Ligand Polar Desolv:            13.378841
########## Ligand Apolar Desolv:            -4.285146
##########      Internal Energy:             0.000000
##########      Receptor Energy:             0.000000
########## Receptor Desolvation:             0.000000
########## Receptor Hydrophobic:             0.000000
##########         Total Energy:           -64.191765
##########        Ligand Charge:             1.000000
##########            Arbitrary:    +999.9990
##########        Ligand Energy:             0.000000

@<TRIPOS>MOLECULE
 ZINC000641750656      none
   49    51     0     0     0



@<TRIPOS>ATOM
      1 C1        -16.8778    17.8709   -22.1962 C.3        1  LIG1   0.0300
      2 O1        -17.5921    17.2988   -21.0987 O.3        1  LIG1  -0.3700
      3 C2        -18.3186    18.2506   -20.3188 C.3        1  LIG1   0.0400
      4 C3        -19.0408    17.5305   -19.1782 C.3        1  LIG1   0.0400
      5 H1        -19.5950    18.2564   -18.5832 H          1  LIG1   0.1600
      6 C4        -20.0112    16.5002   -19.7590 C.3        1  LIG1   0.0500
      7 O2        -20.6857    15.8275   -18.6939 O.3        1  LIG1  -0.5500
      8 N1        -18.0556    16.8499   -18.3272 N.4        1  LIG1  -0.5000
      9 H2        -18.5145    16.1274   -17.7931 H          1  LIG1   0.4400
     10 H3        -17.3397    16.4369   -18.9060 H          1  LIG1   0.4200
     11 C5        -17.4444    17.8225   -17.4116 C.3        1  LIG1   0.0800
     12 C6        -16.4337    17.1244   -16.5386 C.2        1  LIG1  -0.3000
     13 C7        -16.6069    15.9395   -15.9135 C.2        1  LIG1   0.1100
     14 N2        -15.4669    15.6587   -15.2296 N.pl3      1  LIG1  -0.3000
     15 C8        -15.2351    14.5192   -14.4482 C.ar       1  LIG1   0.1300
     16 C9        -14.3887    14.5892   -13.3495 C.ar       1  LIG1  -0.1300
     17 C10       -14.1622    13.4641   -12.5812 C.ar       1  LIG1  -0.0900
     18 C11       -14.7770    12.2685   -12.9053 C.ar       1  LIG1  -0.1100
     19 C12       -15.6204    12.1956   -13.9987 C.ar       1  LIG1  -0.0900
     20 C13       -15.8558    13.3186   -14.7673 C.ar       1  LIG1  -0.1100
     21 N3        -14.5639    16.7081   -15.4431 N.2        1  LIG1  -0.2500
     22 C14       -15.1388    17.5891   -16.2348 C.2        1  LIG1   0.1500
     23 C15       -14.5326    18.8553   -16.7151 C.ar       1  LIG1  -0.0500
     24 C16       -14.1108    19.8194   -15.8016 C.ar       1  LIG1  -0.1000
     25 C17       -13.5471    20.9953   -16.2538 C.ar       1  LIG1  -0.1100
     26 C18       -13.4015    21.2179   -17.6115 C.ar       1  LIG1  -0.0900
     27 C19       -13.8181    20.2646   -18.5224 C.ar       1  LIG1  -0.1100
     28 C20       -14.3775    19.0824   -18.0811 C.ar       1  LIG1  -0.0800
     29 H4        -16.3529    17.0839   -22.7377 H          1  LIG1   0.0500
     30 H5        -17.5788    18.3680   -22.8665 H          1  LIG1   0.0500
     31 H6        -16.1564    18.5970   -21.8212 H          1  LIG1   0.1000
     32 H7        -17.6273    18.9848   -19.9049 H          1  LIG1   0.0700
     33 H8        -19.0497    18.7555   -20.9502 H          1  LIG1   0.0900
     34 H9        -20.7422    17.0050   -20.3905 H          1  LIG1   0.0700
     35 H10       -19.4570    15.7740   -20.3539 H          1  LIG1   0.0900
     36 H11       -20.0958    15.3552   -18.0908 H          1  LIG1   0.4000
     37 H12       -16.9486    18.6031   -17.9887 H          1  LIG1   0.1400
     38 H13       -18.2178    18.2687   -16.7864 H          1  LIG1   0.1400
     39 H14       -17.4941    15.3248   -15.9505 H          1  LIG1   0.1900
     40 H15       -13.9078    15.5224   -13.0963 H          1  LIG1   0.1300
     41 H16       -13.5041    13.5179   -11.7266 H          1  LIG1   0.1400
     42 H17       -14.5978    11.3899   -12.3034 H          1  LIG1   0.1400
     43 H18       -16.0991    11.2604   -14.2493 H          1  LIG1   0.1400
     44 H19       -16.5146    13.2611   -15.6211 H          1  LIG1   0.1400
     45 H20       -14.2252    19.6469   -14.7415 H          1  LIG1   0.1200
     46 H21       -13.2200    21.7430   -15.5465 H          1  LIG1   0.1300
     47 H22       -12.9602    22.1395   -17.9612 H          1  LIG1   0.1300
     48 H23       -13.7018    20.4436   -19.5812 H          1  LIG1   0.1300
     49 H24       -14.7030    18.3388   -18.7935 H          1  LIG1   0.1300
@<TRIPOS>BOND
     1    1    2 1
     2    1   29 1
     3    1   30 1
     4    1   31 1
     5    2    3 1
     6    3    4 1
     7    3   32 1
     8    3   33 1
     9    4    5 1
    10    4    6 1
    11    4    8 1
    12    6    7 1
    13    6   34 1
    14    6   35 1
    15    7   36 1
    16    8    9 1
    17    8   10 1
    18    8   11 1
    19   11   12 1
    20   11   37 1
    21   11   38 1
    22   12   22 1
    23   12   13 2
    24   13   14 1
    25   13   39 1
    26   14   15 1
    27   14   21 1
    28   15   20 ar
    29   15   16 ar
    30   16   17 ar
    31   16   40 1
    32   17   18 ar
    33   17   41 1
    34   18   19 ar
    35   18   42 1
    36   19   20 ar
    37   19   43 1
    38   20   44 1
    39   21   22 2
    40   22   23 1
    41   23   28 ar
    42   23   24 ar
    43   24   25 ar
    44   24   45 1
    45   25   26 ar
    46   25   46 1
    47   26   27 ar
    48   26   47 1
    49   27   28 ar
    50   27   48 1
    51   28   49 1
##########                 Name:     ZINC000425522688
##########          Protonation:                 none
##########               SMILES:   CC1=C(C)C(C#N)=C(NC(=O)C[N@H+]2CC[C@@H](C)C[C@H]2C)S1
##########            Long Name:   NO_LONG_NAME
##########          FlexRecCode: 1
##########               Number:                 9092
##########   Ligand Source File: /nfs/db/export/3D/DG/EDMO/DGEDMO.xav.db2.gz
##########                 Rank:                    1
##########               Setnum:                   16
##########             Matchnum:                    1
##########                Cloud:                    1
##########        Electrostatic:           -41.689789
##########                 Gist:             0.000000
##########        Van der Waals:           -30.881098
##########  Ligand Polar Desolv:            13.457966
########## Ligand Apolar Desolv:            -5.125194
##########      Internal Energy:             0.000000
##########      Receptor Energy:             0.000000
########## Receptor Desolvation:             0.000000
########## Receptor Hydrophobic:             0.000000
##########         Total Energy:           -64.238113
##########        Ligand Charge:             1.000000
##########            Arbitrary:    +999.9990
##########        Ligand Energy:             0.000000

@<TRIPOS>MOLECULE
 ZINC000425522688      none
   45    46     0     0     0



@<TRIPOS>ATOM
      1 C1        -14.5431    12.8536   -13.0146 C.3        1  LIG1  -0.0800
      2 C2        -14.9194    13.8827   -14.0493 C.2        1  LIG1  -0.2200
      3 C3        -14.4349    15.1163   -14.0956 C.2        1  LIG1  -0.0500
      4 C4        -13.4332    15.6525   -13.1056 C.3        1  LIG1  -0.1000
      5 C5        -14.9652    15.8944   -15.1928 C.2        1  LIG1  -0.0700
      6 C6        -14.5944    17.2531   -15.4521 C.1        1  LIG1   0.2600
      7 N1        -14.3004    18.3309   -15.6578 N.1        1  LIG1  -0.4000
      8 C7        -15.8596    15.1939   -15.9581 C.2        1  LIG1   0.0200
      9 N2        -16.5149    15.7030   -17.0707 N.am       1  LIG1  -0.6100
     10 C8        -17.3157    16.7799   -16.9471 C.2        1  LIG1   0.5000
     11 O1        -17.4638    17.3042   -15.8636 O.2        1  LIG1  -0.4900
     12 C9        -18.0272    17.3326   -18.1552 C.3        1  LIG1  -0.0300
     13 N3        -19.3392    16.6799   -18.2932 N.4        1  LIG1  -0.3600
     14 H1        -19.2306    15.6951   -18.0723 H          1  LIG1   0.4300
     15 C10       -20.2768    17.2765   -17.3401 C.3        1  LIG1  -0.0300
     16 C11       -21.6064    16.5271   -17.4039 C.3        1  LIG1  -0.1300
     17 C12       -22.2069    16.6311   -18.8010 C.3        1  LIG1  -0.1000
     18 H2        -23.0429    15.9056   -18.8578 H          1  LIG1   0.1000
     19 C13       -22.8023    18.0206   -19.0276 C.3        1  LIG1  -0.1600
     20 C14       -21.2068    16.2718   -19.8857 C.3        1  LIG1  -0.1300
     21 C15       -19.8063    16.8127   -19.6691 C.3        1  LIG1   0.0300
     22 H3        -19.1186    16.2104   -20.3015 H          1  LIG1   0.1300
     23 C16       -19.6846    18.2589   -20.1483 C.3        1  LIG1  -0.1900
     24 S1        -16.0524    13.6092   -15.3608 S.3        1  LIG1   0.3200
     25 H4        -13.8232    13.2845   -12.3187 H          1  LIG1   0.0700
     26 H5        -15.4346    12.5436   -12.4693 H          1  LIG1   0.0800
     27 H6        -14.0993    11.9885   -13.5072 H          1  LIG1   0.0800
     28 H7        -13.1927    16.6858   -13.3554 H          1  LIG1   0.0800
     29 H8        -13.8561    15.6104   -12.1019 H          1  LIG1   0.0700
     30 H9        -12.5262    15.0490   -13.1434 H          1  LIG1   0.0800
     31 H10       -16.3965    15.2836   -17.9374 H          1  LIG1   0.4300
     32 H11       -18.1667    18.4070   -18.0347 H          1  LIG1   0.1700
     33 H12       -17.4307    17.1415   -19.0473 H          1  LIG1   0.1700
     34 H13       -19.8639    17.1769   -16.3292 H          1  LIG1   0.1500
     35 H14       -20.4239    18.3316   -17.5471 H          1  LIG1   0.1300
     36 H15       -21.4417    15.4764   -17.1525 H          1  LIG1   0.0900
     37 H16       -22.2981    16.9569   -16.6749 H          1  LIG1   0.1100
     38 H17       -23.2260    18.0751   -20.0304 H          1  LIG1   0.0500
     39 H18       -23.5852    18.2048   -18.2919 H          1  LIG1   0.0700
     40 H19       -22.0204    18.7727   -18.9222 H          1  LIG1   0.0700
     41 H20       -21.1544    15.1747   -19.9705 H          1  LIG1   0.0900
     42 H21       -21.5844    16.6386   -20.8530 H          1  LIG1   0.1100
     43 H22       -20.0390    18.3319   -21.1766 H          1  LIG1   0.0900
     44 H23       -20.2870    18.9052   -19.5097 H          1  LIG1   0.0800
     45 H24       -18.6415    18.5709   -20.1005 H          1  LIG1   0.1100
@<TRIPOS>BOND
     1    1    2 1
     2    1   25 1
     3    1   26 1
     4    1   27 1
     5    2   24 1
     6    2    3 2
     7    3    4 1
     8    3    5 1
     9    4   28 1
    10    4   29 1
    11    4   30 1
    12    5    6 1
    13    5    8 2
    14    6    7 3
    15    8    9 1
    16    8   24 1
    17    9   10 am
    18    9   31 1
    19   10   11 2
    20   10   12 1
    21   12   13 1
    22   12   32 1
    23   12   33 1
    24   13   14 1
    25   13   21 1
    26   13   15 1
    27   15   16 1
    28   15   34 1
    29   15   35 1
    30   16   17 1
    31   16   36 1
    32   16   37 1
    33   17   18 1
    34   17   19 1
    35   17   20 1
    36   19   38 1
    37   19   39 1
    38   19   40 1
    39   20   21 1
    40   20   41 1
    41   20   42 1
    42   21   22 1
    43   21   23 1
    44   23   43 1
    45   23   44 1
    46   23   45 1
##########                 Name:     ZINC000629622162
##########          Protonation:                 none
##########               SMILES:   C[C@@H]1CC[N@H+](CC(=O)NCCC2=CNC3=CC(F)=C(Cl)C=C23)C1
##########            Long Name:   NO_LONG_NAME
##########          FlexRecCode: 1
##########               Number:                 3616
##########   Ligand Source File: /nfs/db/export/3D/EF/ADRO/EFADRO.xbkv.db2.gz
##########                 Rank:                    1
##########               Setnum:                   32
##########             Matchnum:                    1
##########                Cloud:                    1
##########        Electrostatic:           -44.922626
##########                 Gist:             0.000000
##########        Van der Waals:           -32.019859
##########  Ligand Polar Desolv:            18.972275
########## Ligand Apolar Desolv:            -4.894679
##########      Internal Energy:             0.000000
##########      Receptor Energy:             0.000000
########## Receptor Desolvation:             0.000000
########## Receptor Hydrophobic:             0.000000
##########         Total Energy:           -62.864895
##########        Ligand Charge:             1.000000
##########            Arbitrary:    +999.9990
##########        Ligand Energy:             0.000000

@<TRIPOS>MOLECULE
 ZINC000629622162      none
   45    47     0     0     0



@<TRIPOS>ATOM
      1 C1        -20.3357    18.5001   -21.4564 C.3        1  LIG1  -0.1500
      2 C2        -20.1865    17.2423   -20.5981 C.3        1  LIG1  -0.1100
      3 H1        -19.7604    16.4241   -21.1787 H          1  LIG1   0.1100
      4 C3        -21.5458    16.8314   -19.9734 C.3        1  LIG1  -0.1400
      5 C4        -21.1263    16.0674   -18.6999 C.3        1  LIG1   0.0000
      6 N1        -19.7643    16.5122   -18.3522 N.4        1  LIG1  -0.3800
      7 H2        -19.1327    15.7259   -18.3802 H          1  LIG1   0.4300
      8 C5        -19.7649    17.0996   -17.0058 C.3        1  LIG1  -0.0300
      9 C6        -18.3712    17.5527   -16.6548 C.2        1  LIG1   0.5000
     10 O1        -18.0136    18.6795   -16.9257 O.2        1  LIG1  -0.5200
     11 N2        -17.5220    16.7057   -16.0398 N.am       1  LIG1  -0.7100
     12 C7        -16.1671    17.1463   -15.6986 C.3        1  LIG1   0.1200
     13 C8        -15.1469    16.2540   -16.4084 C.3        1  LIG1  -0.0500
     14 C9        -15.3365    14.8253   -15.9679 C.2        1  LIG1  -0.1800
     15 C10       -16.1308    13.9107   -16.5455 C.2        1  LIG1   0.0800
     16 N3        -16.0447    12.7238   -15.8686 N.pl3      1  LIG1  -0.5900
     17 C11       -15.1701    12.8501   -14.8118 C.ar       1  LIG1   0.1300
     18 C12       -14.7282    11.9726   -13.8275 C.ar       1  LIG1  -0.1500
     19 C13       -13.8247    12.4025   -12.8780 C.ar       1  LIG1   0.1300
     20 F1        -13.3983    11.5463   -11.9238 F          1  LIG1  -0.1200
     21 C14       -13.3481    13.7092   -12.8941 C.ar       1  LIG1  -0.0900
     22 Cl1       -12.2108    14.2285   -11.6897 Cl         1  LIG1  -0.0400
     23 C15       -13.7733    14.5927   -13.8610 C.ar       1  LIG1  -0.0300
     24 C16       -14.6836    14.1697   -14.8316 C.ar       1  LIG1  -0.1000
     25 C17       -19.3351    17.5295   -19.3362 C.3        1  LIG1  -0.0100
     26 H3        -20.7628    19.3022   -20.8545 H          1  LIG1   0.0700
     27 H4        -19.3571    18.8055   -21.8268 H          1  LIG1   0.0800
     28 H5        -20.9935    18.2887   -22.2995 H          1  LIG1   0.0700
     29 H6        -22.1345    17.7124   -19.7178 H          1  LIG1   0.1000
     30 H7        -22.0993    16.1796   -20.6493 H          1  LIG1   0.1100
     31 H8        -21.8118    16.3000   -17.8851 H          1  LIG1   0.1300
     32 H9        -21.1279    14.9947   -18.8939 H          1  LIG1   0.1400
     33 H10       -20.4414    17.9540   -16.9823 H          1  LIG1   0.1600
     34 H11       -20.0969    16.3533   -16.2839 H          1  LIG1   0.1600
     35 H12       -17.8080    15.8045   -15.8232 H          1  LIG1   0.4100
     36 H13       -16.0301    18.1795   -16.0171 H          1  LIG1   0.0800
     37 H14       -16.0231    17.0762   -14.6204 H          1  LIG1   0.0800
     38 H15       -15.2908    16.3240   -17.4865 H          1  LIG1   0.0800
     39 H16       -14.1388    16.5817   -16.1543 H          1  LIG1   0.0800
     40 H17       -16.7465    14.0851   -17.4155 H          1  LIG1   0.1800
     41 H18       -16.5280    11.9149   -16.0986 H          1  LIG1   0.4300
     42 H19       -15.0922    10.9560   -13.8063 H          1  LIG1   0.1500
     43 H20       -13.4015    15.6066   -13.8709 H          1  LIG1   0.1400
     44 H21       -18.2742    17.4176   -19.5594 H          1  LIG1   0.1400
     45 H22       -19.5411    18.5316   -18.9603 H          1  LIG1   0.1300
@<TRIPOS>BOND
     1    1    2 1
     2    1   26 1
     3    1   27 1
     4    1   28 1
     5    2    3 1
     6    2   25 1
     7    2    4 1
     8    4    5 1
     9    4   29 1
    10    4   30 1
    11    5    6 1
    12    5   31 1
    13    5   32 1
    14    6    7 1
    15    6    8 1
    16    6   25 1
    17    8    9 1
    18    8   33 1
    19    8   34 1
    20    9   10 2
    21    9   11 am
    22   11   12 1
    23   11   35 1
    24   12   13 1
    25   12   36 1
    26   12   37 1
    27   13   14 1
    28   13   38 1
    29   13   39 1
    30   14   24 1
    31   14   15 2
    32   15   16 1
    33   15   40 1
    34   16   17 1
    35   16   41 1
    36   17   24 ar
    37   17   18 ar
    38   18   19 ar
    39   18   42 1
    40   19   20 1
    41   19   21 ar
    42   21   22 1
    43   21   23 ar
    44   23   24 ar
    45   23   43 1
    46   25   44 1
    47   25   45 1
##########                 Name:     ZINC000558462015
##########          Protonation:                 none
##########               SMILES:   C[C@@H]([NH2+][C@@H]1CCC1(C)C)C(=O)NC1=C2C=CC=CC2=CC=C1
##########            Long Name:   NO_LONG_NAME
##########          FlexRecCode: 1
##########               Number:                 5573
##########   Ligand Source File: /nfs/db/export/3D/CH/ADRO/CHADRO.xca.db2.gz
##########                 Rank:                    1
##########               Setnum:                   32
##########             Matchnum:                    1
##########                Cloud:                    1
##########        Electrostatic:           -44.162254
##########                 Gist:             0.000000
##########        Van der Waals:           -30.824415
##########  Ligand Polar Desolv:            13.908199
########## Ligand Apolar Desolv:            -6.139590
##########      Internal Energy:             0.000000
##########      Receptor Energy:             0.000000
########## Receptor Desolvation:             0.000000
########## Receptor Hydrophobic:             0.000000
##########         Total Energy:           -67.218063
##########        Ligand Charge:             1.000000
##########            Arbitrary:    +999.9990
##########        Ligand Energy:             0.000000

@<TRIPOS>MOLECULE
 ZINC000558462015      none
   47    49     0     0     0



@<TRIPOS>ATOM
      1 C1        -17.3594    15.5439   -19.6219 C.3        1  LIG1  -0.1800
      2 C2        -17.7390    16.6672   -18.6551 C.3        1  LIG1   0.0100
      3 H1        -17.6316    17.6295   -19.1560 H          1  LIG1   0.1700
      4 N1        -19.1325    16.4925   -18.2241 N.4        1  LIG1  -0.4900
      5 H2        -19.3156    15.5126   -18.0674 H          1  LIG1   0.4300
      6 H3        -19.2867    17.0045   -17.3685 H          1  LIG1   0.4300
      7 C3        -20.0348    16.9985   -19.2671 C.3        1  LIG1  -0.0100
      8 H4        -19.6991    16.7506   -20.2740 H          1  LIG1   0.1700
      9 C4        -20.4115    18.4790   -19.0904 C.3        1  LIG1  -0.1500
     10 C5        -21.8341    18.0873   -19.5234 C.3        1  LIG1  -0.1300
     11 C6        -21.5155    16.6702   -19.0130 C.3        1  LIG1  -0.0800
     12 C7        -22.0617    15.5581   -19.9107 C.3        1  LIG1  -0.1500
     13 C8        -21.8511    16.4613   -17.5349 C.3        1  LIG1  -0.1600
     14 C9        -16.8319    16.6230   -17.4525 C.2        1  LIG1   0.5000
     15 O1        -16.5632    17.6453   -16.8577 O.2        1  LIG1  -0.5100
     16 N2        -16.3193    15.4475   -17.0379 N.am       1  LIG1  -0.6400
     17 C10       -15.4790    15.4066   -15.9238 C.ar       1  LIG1   0.1200
     18 C11       -15.4329    14.2556   -15.1089 C.ar       1  LIG1  -0.0500
     19 C12       -16.2225    13.1302   -15.3926 C.ar       1  LIG1  -0.1300
     20 C13       -16.1522    12.0365   -14.5847 C.ar       1  LIG1  -0.1000
     21 C14       -15.3066    12.0166   -13.4773 C.ar       1  LIG1  -0.1100
     22 C15       -14.5267    13.0893   -13.1718 C.ar       1  LIG1  -0.0900
     23 C16       -14.5724    14.2361   -13.9835 C.ar       1  LIG1  -0.0400
     24 C17       -13.7808    15.3617   -13.6987 C.ar       1  LIG1  -0.0900
     25 C18       -13.8451    16.4590   -14.5024 C.ar       1  LIG1  -0.1100
     26 C19       -14.6829    16.4879   -15.6132 C.ar       1  LIG1  -0.1000
     27 H5        -17.4667    14.5817   -19.1211 H          1  LIG1   0.1000
     28 H6        -18.0155    15.5759   -20.4918 H          1  LIG1   0.1100
     29 H7        -16.3255    15.6736   -19.9417 H          1  LIG1   0.0900
     30 H8        -20.3489    18.8253   -18.0588 H          1  LIG1   0.1000
     31 H9        -19.9090    19.1442   -19.7926 H          1  LIG1   0.1000
     32 H10       -22.6172    18.5907   -18.9565 H          1  LIG1   0.1000
     33 H11       -21.9918    18.1366   -20.6008 H          1  LIG1   0.1000
     34 H12       -23.1111    15.3823   -19.6736 H          1  LIG1   0.0700
     35 H13       -21.9700    15.8562   -20.9550 H          1  LIG1   0.0600
     36 H14       -21.4932    14.6434   -19.7425 H          1  LIG1   0.0800
     37 H15       -22.9120    16.2335   -17.4319 H          1  LIG1   0.0900
     38 H16       -21.2619    15.6327   -17.1422 H          1  LIG1   0.0600
     39 H17       -21.6185    17.3688   -16.9777 H          1  LIG1   0.0700
     40 H18       -16.5343    14.6300   -17.5136 H          1  LIG1   0.4200
     41 H19       -16.8829    13.1321   -16.2472 H          1  LIG1   0.1200
     42 H20       -16.7608    11.1720   -14.8052 H          1  LIG1   0.1300
     43 H21       -15.2698    11.1369   -12.8518 H          1  LIG1   0.1300
     44 H22       -13.8764    13.0598   -12.3101 H          1  LIG1   0.1400
     45 H23       -13.1224    15.3566   -12.8427 H          1  LIG1   0.1400
     46 H24       -13.2332    17.3197   -14.2761 H          1  LIG1   0.1300
     47 H25       -14.7152    17.3706   -16.2346 H          1  LIG1   0.1400
@<TRIPOS>BOND
     1    1    2 1
     2    1   27 1
     3    1   28 1
     4    1   29 1
     5    2    3 1
     6    2    4 1
     7    2   14 1
     8    4    5 1
     9    4    6 1
    10    4    7 1
    11    7    8 1
    12    7   11 1
    13    7    9 1
    14    9   10 1
    15    9   30 1
    16    9   31 1
    17   10   11 1
    18   10   32 1
    19   10   33 1
    20   11   12 1
    21   11   13 1
    22   12   34 1
    23   12   35 1
    24   12   36 1
    25   13   37 1
    26   13   38 1
    27   13   39 1
    28   14   15 2
    29   14   16 am
    30   16   17 1
    31   16   40 1
    32   17   26 ar
    33   17   18 ar
    34   18   23 ar
    35   18   19 ar
    36   19   20 ar
    37   19   41 1
    38   20   21 ar
    39   20   42 1
    40   21   22 ar
    41   21   43 1
    42   22   23 ar
    43   22   44 1
    44   23   24 ar
    45   24   25 ar
    46   24   45 1
    47   25   26 ar
    48   25   46 1
    49   26   47 1
##########                 Name:     ZINC000610212538
##########          Protonation:                 none
##########               SMILES:   COC(=O)C[C@H]1CCCC[N@H+]1CC1=NC=C(C2=CC=CC=C2F)O1
##########            Long Name:   NO_LONG_NAME
##########          FlexRecCode: 1
##########               Number:                 5391
##########   Ligand Source File: /nfs/db/export/3D/EG/ADMO/EGADMO.xaff.db2.gz
##########                 Rank:                    1
##########               Setnum:                   83
##########             Matchnum:                    1
##########                Cloud:                    1
##########        Electrostatic:           -36.993301
##########                 Gist:             0.000000
##########        Van der Waals:           -32.569115
##########  Ligand Polar Desolv:            11.453365
########## Ligand Apolar Desolv:            -4.882318
##########      Internal Energy:             0.000000
##########      Receptor Energy:             0.000000
########## Receptor Desolvation:             0.000000
########## Receptor Hydrophobic:             0.000000
##########         Total Energy:           -62.991367
##########        Ligand Charge:             1.000000
##########            Arbitrary:    +999.9990
##########        Ligand Energy:             0.000000

@<TRIPOS>MOLECULE
 ZINC000610212538      none
   46    48     0     0     0



@<TRIPOS>ATOM
      1 C1        -23.3323    15.9583   -19.9116 C.3        1  LIG1   0.0300
      2 O1        -22.1357    15.9551   -19.0891 O.3        1  LIG1  -0.3400
      3 C2        -21.4596    17.1106   -18.9922 C.2        1  LIG1   0.4600
      4 O2        -21.8546    18.0924   -19.5754 O.2        1  LIG1  -0.5200
      5 C3        -20.2080    17.1834   -18.1561 C.3        1  LIG1  -0.1500
      6 C4        -18.9947    16.8424   -19.0236 C.3        1  LIG1   0.0400
      7 H1        -19.2473    16.0209   -19.6941 H          1  LIG1   0.1500
      8 C5        -18.5970    18.0687   -19.8480 C.3        1  LIG1  -0.1400
      9 C6        -17.3828    17.7226   -20.7146 C.3        1  LIG1  -0.1400
     10 C7        -16.2455    17.2366   -19.8117 C.3        1  LIG1  -0.1500
     11 C8        -16.7302    16.0411   -18.9888 C.3        1  LIG1  -0.0100
     12 N1        -17.8747    16.4437   -18.1626 N.4        1  LIG1  -0.3800
     13 H2        -18.1584    15.6688   -17.5821 H          1  LIG1   0.4300
     14 C9        -17.4876    17.5761   -17.3107 C.3        1  LIG1   0.0900
     15 C10       -16.3377    17.1688   -16.4258 C.2        1  LIG1   0.1000
     16 N2        -15.2706    17.8813   -16.1961 N.2        1  LIG1  -0.4200
     17 C11       -14.4664    17.2033   -15.3634 C.2        1  LIG1  -0.0100
     18 C12       -15.0761    16.0248   -15.0756 C.2        1  LIG1   0.0500
     19 C13       -14.5574    14.9563   -14.1957 C.ar       1  LIG1  -0.0800
     20 C14       -14.8902    13.6237   -14.4405 C.ar       1  LIG1  -0.0600
     21 C15       -14.4024    12.6307   -13.6157 C.ar       1  LIG1  -0.1300
     22 C16       -13.5849    12.9530   -12.5471 C.ar       1  LIG1  -0.0600
     23 C17       -13.2498    14.2717   -12.2971 C.ar       1  LIG1  -0.1500
     24 C18       -13.7264    15.2758   -13.1180 C.ar       1  LIG1   0.1300
     25 F1        -13.3985    16.5633   -12.8737 F          1  LIG1  -0.1300
     26 O3        -16.2504    16.0185   -15.7438 O.3        1  LIG1  -0.1800
     27 H3        -23.7812    14.9651   -19.9041 H          1  LIG1   0.0700
     28 H4        -24.0443    16.6819   -19.5144 H          1  LIG1   0.0700
     29 H5        -23.0697    16.2307   -20.9340 H          1  LIG1   0.1200
     30 H6        -20.0966    18.1911   -17.7558 H          1  LIG1   0.1600
     31 H7        -20.2783    16.4714   -17.3339 H          1  LIG1   0.1300
     32 H8        -19.4291    18.3625   -20.4879 H          1  LIG1   0.1200
     33 H9        -18.3440    18.8908   -19.1785 H          1  LIG1   0.0900
     34 H10       -17.6505    16.9353   -21.4194 H          1  LIG1   0.0900
     35 H11       -17.0608    18.6088   -21.2615 H          1  LIG1   0.1000
     36 H12       -15.3966    16.9357   -20.4257 H          1  LIG1   0.1200
     37 H13       -15.9435    18.0414   -19.1414 H          1  LIG1   0.0900
     38 H14       -17.0317    15.2368   -19.6598 H          1  LIG1   0.1400
     39 H15       -15.9227    15.6924   -18.3449 H          1  LIG1   0.1300
     40 H16       -17.1845    18.4151   -17.9370 H          1  LIG1   0.1800
     41 H17       -18.3350    17.8719   -16.6922 H          1  LIG1   0.1500
     42 H18       -13.5084    17.5345   -14.9902 H          1  LIG1   0.2000
     43 H19       -15.5287    13.3698   -15.2736 H          1  LIG1   0.1400
     44 H20       -14.6597    11.5991   -13.8048 H          1  LIG1   0.1400
     45 H21       -13.2068    12.1712   -11.9049 H          1  LIG1   0.1500
     46 H22       -12.6113    14.5163   -11.4612 H          1  LIG1   0.1500
@<TRIPOS>BOND
     1    1    2 1
     2    1   27 1
     3    1   28 1
     4    1   29 1
     5    2    3 1
     6    3    4 2
     7    3    5 1
     8    5    6 1
     9    5   30 1
    10    5   31 1
    11    6    7 1
    12    6   12 1
    13    6    8 1
    14    8    9 1
    15    8   32 1
    16    8   33 1
    17    9   10 1
    18    9   34 1
    19    9   35 1
    20   10   11 1
    21   10   36 1
    22   10   37 1
    23   11   12 1
    24   11   38 1
    25   11   39 1
    26   12   13 1
    27   12   14 1
    28   14   15 1
    29   14   40 1
    30   14   41 1
    31   15   26 1
    32   15   16 2
    33   16   17 1
    34   17   18 2
    35   17   42 1
    36   18   19 1
    37   18   26 1
    38   19   24 ar
    39   19   20 ar
    40   20   21 ar
    41   20   43 1
    42   21   22 ar
    43   21   44 1
    44   22   23 ar
    45   22   45 1
    46   23   24 ar
    47   23   46 1
    48   24   25 1
##########                 Name:     ZINC000342314933
##########          Protonation:                 none
##########               SMILES:   CCN1C(=O)NC(=O)C(C(=O)C[NH2+][C@@H](C)C2=CC=C(F)C(C)=C2)=C1N
##########            Long Name:   NO_LONG_NAME
##########          FlexRecCode: 1
##########               Number:                 2913
##########   Ligand Source File: /nfs/db/export/3D/ED/ADMO/EDADMO.xbxe.db2.gz
##########                 Rank:                    1
##########               Setnum:                  196
##########             Matchnum:                    1
##########                Cloud:                    1
##########        Electrostatic:           -41.912575
##########                 Gist:             0.000000
##########        Van der Waals:           -36.669643
##########  Ligand Polar Desolv:            12.736072
########## Ligand Apolar Desolv:            -3.456831
##########      Internal Energy:             0.000000
##########      Receptor Energy:             0.000000
########## Receptor Desolvation:             0.000000
########## Receptor Hydrophobic:             0.000000
##########         Total Energy:           -69.302971
##########        Ligand Charge:             1.000000
##########            Arbitrary:    +999.9990
##########        Ligand Energy:             0.000000

@<TRIPOS>MOLECULE
 ZINC000342314933      none
   47    48     0     0     0



@<TRIPOS>ATOM
      1 C1        -14.5191    12.8770   -12.7688 C.3        1  LIG1  -0.1800
      2 C2        -14.0800    13.1646   -14.2060 C.3        1  LIG1   0.0900
      3 N1        -14.3838    14.5584   -14.5399 N.am       1  LIG1  -0.5400
      4 C3        -13.4623    15.5061   -14.3076 C.2        1  LIG1   0.7100
      5 O1        -12.3961    15.1798   -13.8242 O.2        1  LIG1  -0.5000
      6 N2        -13.6751    16.8018   -14.5899 N.am       1  LIG1  -0.6600
      7 C4        -14.8432    17.2100   -15.1271 C.2        1  LIG1   0.5900
      8 O2        -15.0327    18.3850   -15.3822 O.2        1  LIG1  -0.5200
      9 C5        -15.8814    16.2074   -15.3981 C.2        1  LIG1  -0.4700
     10 C6        -17.1223    16.5770   -15.9595 C.2        1  LIG1   0.4300
     11 O3        -18.1520    16.3605   -15.3529 O.2        1  LIG1  -0.5100
     12 C7        -17.1697    17.2405   -17.3118 C.3        1  LIG1  -0.0400
     13 N3        -18.4288    16.8932   -17.9837 N.4        1  LIG1  -0.5000
     14 H1        -18.4840    15.8922   -18.0981 H          1  LIG1   0.4300
     15 H2        -19.2068    17.2114   -17.4256 H          1  LIG1   0.4300
     16 C8        -18.4749    17.5400   -19.3019 C.3        1  LIG1   0.0800
     17 H3        -18.0691    18.5487   -19.2261 H          1  LIG1   0.1500
     18 C9        -17.6429    16.7289   -20.2974 C.3        1  LIG1  -0.1800
     19 C10       -19.9030    17.6077   -19.7786 C.ar       1  LIG1  -0.1500
     20 C11       -20.3072    18.6401   -20.6040 C.ar       1  LIG1  -0.1000
     21 C12       -21.6167    18.7030   -21.0423 C.ar       1  LIG1  -0.1400
     22 C13       -22.5234    17.7315   -20.6541 C.ar       1  LIG1   0.1300
     23 F1        -23.8033    17.7918   -21.0821 F          1  LIG1  -0.1200
     24 C14       -22.1172    16.6977   -19.8271 C.ar       1  LIG1  -0.1000
     25 C15       -23.1028    15.6391   -19.4041 C.3        1  LIG1  -0.1300
     26 C16       -20.8064    16.6339   -19.3946 C.ar       1  LIG1  -0.0600
     27 C17       -15.5970    14.8665   -15.0863 C.2        1  LIG1   0.5800
     28 N4        -16.5196    13.8929   -15.3148 N.pl3      1  LIG1  -0.7800
     29 H4        -14.2930    11.8402   -12.5205 H          1  LIG1   0.0900
     30 H5        -13.9854    13.5388   -12.0867 H          1  LIG1   0.0600
     31 H6        -15.5917    13.0476   -12.6756 H          1  LIG1   0.0800
     32 H7        -13.0075    12.9941   -14.2992 H          1  LIG1   0.1000
     33 H8        -14.6138    12.5030   -14.8883 H          1  LIG1   0.1200
     34 H9        -12.9798    17.4524   -14.4049 H          1  LIG1   0.4400
     35 H10       -17.1100    18.3219   -17.1882 H          1  LIG1   0.1700
     36 H11       -16.3291    16.8969   -17.9147 H          1  LIG1   0.1700
     37 H12       -17.6772    17.2088   -21.2754 H          1  LIG1   0.0800
     38 H13       -16.6101    16.6799   -19.9527 H          1  LIG1   0.1100
     39 H14       -18.0490    15.7201   -20.3731 H          1  LIG1   0.0900
     40 H15       -19.5998    19.3980   -20.9064 H          1  LIG1   0.1300
     41 H16       -21.9324    19.5099   -21.6868 H          1  LIG1   0.1500
     42 H17       -22.6040    14.9148   -18.7600 H          1  LIG1   0.0800
     43 H18       -23.9243    16.1044   -18.8596 H          1  LIG1   0.0800
     44 H19       -23.4928    15.1323   -20.2868 H          1  LIG1   0.0800
     45 H20       -20.4894    15.8277   -18.7497 H          1  LIG1   0.1500
     46 H21       -16.3182    12.9712   -15.0894 H          1  LIG1   0.4400
     47 H22       -17.3789    14.1205   -15.7033 H          1  LIG1   0.4200
@<TRIPOS>BOND
     1    1    2 1
     2    1   29 1
     3    1   30 1
     4    1   31 1
     5    2    3 1
     6    2   32 1
     7    2   33 1
     8    3   27 1
     9    3    4 am
    10    4    5 2
    11    4    6 am
    12    6    7 am
    13    6   34 1
    14    7    8 2
    15    7    9 1
    16    9   10 1
    17    9   27 2
    18   10   11 2
    19   10   12 1
    20   12   13 1
    21   12   35 1
    22   12   36 1
    23   13   14 1
    24   13   15 1
    25   13   16 1
    26   16   17 1
    27   16   18 1
    28   16   19 1
    29   18   37 1
    30   18   38 1
    31   18   39 1
    32   19   26 ar
    33   19   20 ar
    34   20   21 ar
    35   20   40 1
    36   21   22 ar
    37   21   41 1
    38   22   23 1
    39   22   24 ar
    40   24   25 1
    41   24   26 ar
    42   25   42 1
    43   25   43 1
    44   25   44 1
    45   26   45 1
    46   27   28 1
    47   28   46 1
    48   28   47 1
##########                 Name:     ZINC000186145578
##########          Protonation:                 none
##########               SMILES:   NC1=[NH+]C(N2C[C@@H](C3=CSC=C3)[C@H](CO)C2)=CC(N2C=CC=N2)=N1
##########            Long Name:   NO_LONG_NAME
##########          FlexRecCode: 1
##########               Number:                15629
##########   Ligand Source File: /nfs/db/export/3D/ED/ADRO/EDADRO.xcjc.db2.gz
##########                 Rank:                    1
##########               Setnum:                   78
##########             Matchnum:                    1
##########                Cloud:                    1
##########        Electrostatic:           -41.943840
##########                 Gist:             0.000000
##########        Van der Waals:           -34.223057
##########  Ligand Polar Desolv:            17.014610
########## Ligand Apolar Desolv:            -3.541548
##########      Internal Energy:             0.000000
##########      Receptor Energy:             0.000000
########## Receptor Desolvation:             0.000000
########## Receptor Hydrophobic:             0.000000
##########         Total Energy:           -62.693840
##########        Ligand Charge:             1.000000
##########            Arbitrary:    +999.9990
##########        Ligand Energy:             0.000000

@<TRIPOS>MOLECULE
 ZINC000186145578      none
   43    46     0     0     0



@<TRIPOS>ATOM
      1 N1        -16.9439    12.2533   -16.4284 N.pl3      1  LIG1  -0.7900
      2 C1        -16.2940    13.3812   -15.9586 C.ar       1  LIG1   0.6700
      3 N2        -16.5630    14.5561   -16.5075 N.ar       1  LIG1  -0.5900
      4 H1        -17.2093    14.6117   -17.2286 H          1  LIG1   0.4400
      5 C2        -15.9574    15.6612   -16.0807 C.ar       1  LIG1   0.4300
      6 N3        -16.2445    16.8874   -16.6591 N.pl3      1  LIG1  -0.4400
      7 C3        -15.4086    17.9635   -16.0681 C.3        1  LIG1   0.0100
      8 C4        -15.4621    19.0824   -17.1385 C.3        1  LIG1  -0.0100
      9 H2        -16.3843    19.6567   -17.0505 H          1  LIG1   0.1100
     10 C5        -14.2609    19.9857   -17.0264 C.2        1  LIG1  -0.1000
     11 C6        -13.6408    20.2141   -15.8677 C.2        1  LIG1  -0.2200
     12 S1        -12.2917    21.3123   -16.1274 S.3        1  LIG1   0.1400
     13 C7        -12.6567    21.4022   -17.8457 C.2        1  LIG1  -0.2000
     14 C8        -13.7144    20.6367   -18.1188 C.2        1  LIG1  -0.1300
     15 C9        -15.4346    18.2917   -18.4666 C.3        1  LIG1  -0.0900
     16 H3        -14.4189    18.2481   -18.8601 H          1  LIG1   0.1100
     17 C10       -16.3719    18.9378   -19.4889 C.3        1  LIG1   0.0800
     18 O1        -16.3327    18.1937   -20.7082 O.3        1  LIG1  -0.5700
     19 C11       -15.9283    16.8788   -18.1039 C.3        1  LIG1   0.0500
     20 C12       -15.0309    15.5688   -15.0441 C.ar       1  LIG1  -0.2500
     21 C13       -14.7754    14.3187   -14.4947 C.ar       1  LIG1   0.5500
     22 N4        -13.8553    14.1784   -13.4540 N.pl3      1  LIG1  -0.3400
     23 C14       -13.5141    13.0160   -12.8381 C.2        1  LIG1   0.0700
     24 C15       -12.5953    13.3098   -11.8901 C.2        1  LIG1  -0.2200
     25 C16       -12.3657    14.6903   -11.9242 C.2        1  LIG1   0.1100
     26 N5        -13.1145    15.2097   -12.8623 N.2        1  LIG1  -0.2800
     27 N6        -15.4231    13.2582   -14.9683 N.ar       1  LIG1  -0.5600
     28 H4        -16.7607    11.3873   -16.0316 H          1  LIG1   0.4500
     29 H5        -17.5856    12.3293   -17.1519 H          1  LIG1   0.4300
     30 H6        -15.8364    18.3103   -15.1275 H          1  LIG1   0.1200
     31 H7        -14.3847    17.6191   -15.9223 H          1  LIG1   0.0700
     32 H8        -13.9238    19.7900   -14.9157 H          1  LIG1   0.1600
     33 H9        -12.1058    21.9842   -18.5696 H          1  LIG1   0.1700
     34 H10       -14.1187    20.5386   -19.1155 H          1  LIG1   0.1500
     35 H11       -17.3893    18.9411   -19.0977 H          1  LIG1   0.0600
     36 H12       -16.0521    19.9625   -19.6783 H          1  LIG1   0.0600
     37 H13       -16.6053    17.2706   -20.6146 H          1  LIG1   0.3900
     38 H14       -15.1458    16.1482   -18.3085 H          1  LIG1   0.0800
     39 H15       -16.8230    16.6393   -18.6785 H          1  LIG1   0.1200
     40 H16       -14.5231    16.4483   -14.6766 H          1  LIG1   0.2000
     41 H17       -13.9058    12.0353   -13.0645 H          1  LIG1   0.2000
     42 H18       -12.1223    12.6036   -11.2237 H          1  LIG1   0.1800
     43 H19       -11.6836    15.2334   -11.2868 H          1  LIG1   0.2100
@<TRIPOS>BOND
     1    1    2 1
     2    1   28 1
     3    1   29 1
     4    2   27 ar
     5    2    3 ar
     6    3    4 1
     7    3    5 ar
     8    5    6 1
     9    5   20 ar
    10    6   19 1
    11    6    7 1
    12    7    8 1
    13    7   30 1
    14    7   31 1
    15    8    9 1
    16    8   10 1
    17    8   15 1
    18   10   14 1
    19   10   11 2
    20   11   12 1
    21   11   32 1
    22   12   13 1
    23   13   14 2
    24   13   33 1
    25   14   34 1
    26   15   16 1
    27   15   17 1
    28   15   19 1
    29   17   18 1
    30   17   35 1
    31   17   36 1
    32   18   37 1
    33   19   38 1
    34   19   39 1
    35   20   21 ar
    36   20   40 1
    37   21   22 1
    38   21   27 ar
    39   22   26 1
    40   22   23 1
    41   23   24 2
    42   23   41 1
    43   24   25 1
    44   24   42 1
    45   25   26 2
    46   25   43 1
##########                 Name:     ZINC000545398339
##########          Protonation:                 none
##########               SMILES:   COC1=CC=C(C)C=C1NC(=O)CNC(=O)C[N@@H+]1CCC[C@]1(C)CO
##########            Long Name:   NO_LONG_NAME
##########          FlexRecCode: 1
##########               Number:                 6668
##########   Ligand Source File: /nfs/db/export/3D/EC/ADRO/ECADRO.xaln.db2.gz
##########                 Rank:                    1
##########               Setnum:                  318
##########             Matchnum:                    1
##########                Cloud:                    1
##########        Electrostatic:           -44.394814
##########                 Gist:             0.000000
##########        Van der Waals:           -33.229805
##########  Ligand Polar Desolv:            16.152679
########## Ligand Apolar Desolv:            -1.543709
##########      Internal Energy:             0.000000
##########      Receptor Energy:             0.000000
########## Receptor Desolvation:             0.000000
########## Receptor Hydrophobic:             0.000000
##########         Total Energy:           -63.015648
##########        Ligand Charge:             1.000000
##########            Arbitrary:    +999.9990
##########        Ligand Energy:             0.000000

@<TRIPOS>MOLECULE
 ZINC000545398339      none
   53    54     0     0     0



@<TRIPOS>ATOM
      1 C1        -16.3094    11.4230   -16.9227 C.3        1  LIG1   0.0300
      2 O1        -16.8565    12.1513   -15.8214 O.3        1  LIG1  -0.3200
      3 C2        -15.9835    12.8538   -15.0514 C.ar       1  LIG1   0.1000
      4 C3        -15.3859    12.2537   -13.9554 C.ar       1  LIG1  -0.1800
      5 C4        -14.4986    12.9697   -13.1728 C.ar       1  LIG1  -0.0900
      6 C5        -14.2048    14.2849   -13.4813 C.ar       1  LIG1  -0.1000
      7 C6        -13.2371    15.0597   -12.6245 C.3        1  LIG1  -0.1100
      8 C7        -14.7963    14.8909   -14.5740 C.ar       1  LIG1  -0.0900
      9 C8        -15.6834    14.1776   -15.3662 C.ar       1  LIG1   0.1100
     10 N1        -16.2838    14.7895   -16.4745 N.am       1  LIG1  -0.6500
     11 C9        -15.6297    15.7577   -17.1462 C.2        1  LIG1   0.5100
     12 O2        -14.5212    16.0992   -16.7915 O.2        1  LIG1  -0.5200
     13 C10       -16.2754    16.4159   -18.3382 C.3        1  LIG1   0.1000
     14 N2        -17.7306    16.4151   -18.1679 N.am       1  LIG1  -0.6900
     15 C11       -18.3376    17.4489   -17.5522 C.2        1  LIG1   0.5100
     16 O3        -17.6793    18.3800   -17.1392 O.2        1  LIG1  -0.5200
     17 C12       -19.8344    17.4481   -17.3771 C.3        1  LIG1  -0.0400
     18 N3        -20.4684    16.6915   -18.5035 N.4        1  LIG1  -0.3700
     19 H1        -20.0799    15.6859   -18.4663 H          1  LIG1   0.4300
     20 C13       -20.0726    17.1955   -19.8813 C.3        1  LIG1  -0.0100
     21 C14       -21.3303    17.0979   -20.7297 C.3        1  LIG1  -0.1400
     22 C15       -22.2655    16.1862   -19.9561 C.3        1  LIG1  -0.1200
     23 C16       -21.9890    16.5268   -18.4885 C.3        1  LIG1   0.0500
     24 C17       -22.3685    15.3716   -17.5619 C.3        1  LIG1  -0.1700
     25 C18       -22.6855    17.8242   -18.0598 C.3        1  LIG1   0.0700
     26 O4        -22.6391    17.9419   -16.6365 O.3        1  LIG1  -0.5500
     27 H2        -17.1113    10.9087   -17.4525 H          1  LIG1   0.0600
     28 H3        -15.8094    12.1133   -17.6022 H          1  LIG1   0.0600
     29 H4        -15.5905    10.6918   -16.5534 H          1  LIG1   0.1000
     30 H5        -15.6133    11.2264   -13.7116 H          1  LIG1   0.1400
     31 H6        -14.0342    12.5004   -12.3182 H          1  LIG1   0.1300
     32 H7        -13.1315    16.0704   -13.0186 H          1  LIG1   0.0700
     33 H8        -13.6131    15.1058   -11.6024 H          1  LIG1   0.0700
     34 H9        -12.2667    14.5633   -12.6326 H          1  LIG1   0.0700
     35 H10       -14.5649    15.9184   -14.8126 H          1  LIG1   0.1500
     36 H11       -17.1703    14.5164   -16.7583 H          1  LIG1   0.4200
     37 H12       -15.9202    17.4430   -18.4230 H          1  LIG1   0.1100
     38 H13       -16.0152    15.8657   -19.2424 H          1  LIG1   0.1200
     39 H14       -18.2571    15.6703   -18.4983 H          1  LIG1   0.4200
     40 H15       -20.0891    16.9715   -16.4304 H          1  LIG1   0.1600
     41 H16       -20.2008    18.4746   -17.3773 H          1  LIG1   0.1600
     42 H17       -19.7255    18.2273   -19.7936 H          1  LIG1   0.1300
     43 H18       -19.2732    16.5626   -20.2727 H          1  LIG1   0.1500
     44 H19       -21.7852    18.1015   -20.8817 H          1  LIG1   0.1200
     45 H20       -21.1003    16.6766   -21.7331 H          1  LIG1   0.1000
     46 H21       -23.3172    16.3904   -20.2029 H          1  LIG1   0.1000
     47 H22       -22.0439    15.1274   -20.1523 H          1  LIG1   0.1200
     48 H23       -23.4522    15.2548   -17.5517 H          1  LIG1   0.0800
     49 H24       -21.9073    14.4515   -17.9205 H          1  LIG1   0.0800
     50 H25       -22.0165    15.5849   -16.5525 H          1  LIG1   0.1200
     51 H26       -22.1770    18.6759   -18.5117 H          1  LIG1   0.0700
     52 H27       -23.7243    17.8048   -18.3891 H          1  LIG1   0.0700
     53 H28       -21.7435    17.9654   -16.2728 H          1  LIG1   0.4100
@<TRIPOS>BOND
     1    1    2 1
     2    1   27 1
     3    1   28 1
     4    1   29 1
     5    2    3 1
     6    3    9 ar
     7    3    4 ar
     8    4    5 ar
     9    4   30 1
    10    5    6 ar
    11    5   31 1
    12    6    7 1
    13    6    8 ar
    14    7   32 1
    15    7   33 1
    16    7   34 1
    17    8    9 ar
    18    8   35 1
    19    9   10 1
    20   10   11 am
    21   10   36 1
    22   11   12 2
    23   11   13 1
    24   13   14 1
    25   13   37 1
    26   13   38 1
    27   14   15 am
    28   14   39 1
    29   15   16 2
    30   15   17 1
    31   17   18 1
    32   17   40 1
    33   17   41 1
    34   18   19 1
    35   18   23 1
    36   18   20 1
    37   20   21 1
    38   20   42 1
    39   20   43 1
    40   21   22 1
    41   21   44 1
    42   21   45 1
    43   22   23 1
    44   22   46 1
    45   22   47 1
    46   23   24 1
    47   23   25 1
    48   24   48 1
    49   24   49 1
    50   24   50 1
    51   25   26 1
    52   25   51 1
    53   25   52 1
    54   26   53 1
##########                 Name:     ZINC000192132530
##########          Protonation:                 none
##########               SMILES:   CC1=CC=C(NC(=O)C[NH2+][C@@H]2CCO[C@H]2C2=CC=C(F)C(F)=C2)C=C1
##########            Long Name:   NO_LONG_NAME
##########          FlexRecCode: 1
##########               Number:                 7463
##########   Ligand Source File: /nfs/db/export/3D/EG/ADRO/EGADRO.xbyw.db2.gz
##########                 Rank:                    1
##########               Setnum:                   65
##########             Matchnum:                    1
##########                Cloud:                    1
##########        Electrostatic:           -46.125454
##########                 Gist:             0.000000
##########        Van der Waals:           -33.120541
##########  Ligand Polar Desolv:            21.177250
########## Ligand Apolar Desolv:            -4.317403
##########      Internal Energy:             0.000000
##########      Receptor Energy:             0.000000
########## Receptor Desolvation:             0.000000
########## Receptor Hydrophobic:             0.000000
##########         Total Energy:           -62.386147
##########        Ligand Charge:             1.000000
##########            Arbitrary:    +999.9990
##########        Ligand Energy:             0.000000

@<TRIPOS>MOLECULE
 ZINC000192132530      none
   46    48     0     0     0



@<TRIPOS>ATOM
      1 C1        -13.3191    13.2702   -12.2846 C.3        1  LIG1  -0.1200
      2 C2        -14.1583    13.7902   -13.4232 C.ar       1  LIG1  -0.0800
      3 C3        -15.0048    12.9342   -14.1033 C.ar       1  LIG1  -0.1000
      4 C4        -15.7752    13.4076   -15.1473 C.ar       1  LIG1  -0.1100
      5 C5        -15.6993    14.7451   -15.5135 C.ar       1  LIG1   0.1100
      6 N1        -16.4787    15.2279   -16.5703 N.am       1  LIG1  -0.6400
      7 C6        -16.8935    16.5103   -16.5708 C.2        1  LIG1   0.5000
      8 O1        -16.5912    17.2458   -15.6551 O.2        1  LIG1  -0.5100
      9 C7        -17.7331    17.0302   -17.7093 C.3        1  LIG1  -0.0300
     10 N2        -19.1551    16.8276   -17.4012 N.4        1  LIG1  -0.4900
     11 H1        -19.3346    15.8429   -17.2732 H          1  LIG1   0.4400
     12 H2        -19.3903    17.3249   -16.5553 H          1  LIG1   0.4400
     13 C8        -19.9736    17.3344   -18.5109 C.3        1  LIG1  -0.0100
     14 H3        -19.7917    18.3983   -18.6630 H          1  LIG1   0.1700
     15 C9        -21.4754    17.0747   -18.2392 C.3        1  LIG1  -0.1700
     16 C10       -21.7321    15.7775   -19.0475 C.3        1  LIG1   0.0300
     17 O2        -20.9182    15.9494   -20.2276 O.3        1  LIG1  -0.3300
     18 C11       -19.6785    16.5468   -19.8021 C.3        1  LIG1   0.1200
     19 H4        -18.9420    15.7687   -19.6012 H          1  LIG1   0.1000
     20 C12       -19.1638    17.4757   -20.8712 C.ar       1  LIG1  -0.1100
     21 C13       -19.9461    18.5290   -21.3058 C.ar       1  LIG1  -0.0700
     22 C14       -19.4759    19.3825   -22.2865 C.ar       1  LIG1  -0.1200
     23 C15       -18.2208    19.1831   -22.8338 C.ar       1  LIG1   0.0900
     24 F1        -17.7605    20.0170   -23.7919 F          1  LIG1  -0.1200
     25 C16       -17.4356    18.1266   -22.3974 C.ar       1  LIG1   0.0700
     26 F2        -16.2098    17.9298   -22.9302 F          1  LIG1  -0.1200
     27 C17       -17.9070    17.2768   -21.4123 C.ar       1  LIG1  -0.1100
     28 C18       -14.8484    15.6022   -14.8281 C.ar       1  LIG1  -0.1300
     29 C19       -14.0842    15.1236   -13.7819 C.ar       1  LIG1  -0.1000
     30 H5        -13.5097    12.2054   -12.1494 H          1  LIG1   0.0800
     31 H6        -12.2640    13.4245   -12.5108 H          1  LIG1   0.0700
     32 H7        -13.5765    13.8043   -11.3700 H          1  LIG1   0.0700
     33 H8        -15.0635    11.8941   -13.8181 H          1  LIG1   0.1300
     34 H9        -16.4358    12.7383   -15.6786 H          1  LIG1   0.1300
     35 H10       -16.7206    14.6397   -17.3028 H          1  LIG1   0.4200
     36 H11       -17.5393    18.0939   -17.8473 H          1  LIG1   0.1700
     37 H12       -17.4791    16.4929   -18.6229 H          1  LIG1   0.1700
     38 H13       -21.6562    16.9131   -17.1764 H          1  LIG1   0.1100
     39 H14       -22.0863    17.8952   -18.6159 H          1  LIG1   0.1300
     40 H15       -21.4092    14.9029   -18.4827 H          1  LIG1   0.0800
     41 H16       -22.7852    15.6947   -19.3163 H          1  LIG1   0.1200
     42 H17       -20.9258    18.6851   -20.8791 H          1  LIG1   0.1500
     43 H18       -20.0885    20.2048   -22.6258 H          1  LIG1   0.1600
     44 H19       -17.2964    16.4538   -21.0713 H          1  LIG1   0.1500
     45 H20       -14.7871    16.6429   -15.1104 H          1  LIG1   0.1300
     46 H21       -13.4223    15.7898   -13.2485 H          1  LIG1   0.1300
@<TRIPOS>BOND
     1    1    2 1
     2    1   30 1
     3    1   31 1
     4    1   32 1
     5    2   29 ar
     6    2    3 ar
     7    3    4 ar
     8    3   33 1
     9    4    5 ar
    10    4   34 1
    11    5    6 1
    12    5   28 ar
    13    6    7 am
    14    6   35 1
    15    7    8 2
    16    7    9 1
    17    9   10 1
    18    9   36 1
    19    9   37 1
    20   10   11 1
    21   10   12 1
    22   10   13 1
    23   13   14 1
    24   13   18 1
    25   13   15 1
    26   15   16 1
    27   15   38 1
    28   15   39 1
    29   16   17 1
    30   16   40 1
    31   16   41 1
    32   17   18 1
    33   18   19 1
    34   18   20 1
    35   20   27 ar
    36   20   21 ar
    37   21   22 ar
    38   21   42 1
    39   22   23 ar
    40   22   43 1
    41   23   24 1
    42   23   25 ar
    43   25   26 1
    44   25   27 ar
    45   27   44 1
    46   28   29 ar
    47   28   45 1
    48   29   46 1
##########                 Name:     ZINC000567723662
##########          Protonation:                 none
##########               SMILES:   COC1=CC=C(NC(=O)[C@@H](C)[N@H+]2CC[C@@H](C3=NN=CN3)C2)C(OC)=C1
##########            Long Name:   NO_LONG_NAME
##########          FlexRecCode: 1
##########               Number:                 3747
##########   Ligand Source File: /nfs/db/export/3D/ED/ADMO/EDADMO.xaxo.db2.gz
##########                 Rank:                    1
##########               Setnum:                   33
##########             Matchnum:                    1
##########                Cloud:                    1
##########        Electrostatic:           -42.057472
##########                 Gist:             0.000000
##########        Van der Waals:           -37.887447
##########  Ligand Polar Desolv:            19.900463
########## Ligand Apolar Desolv:            -3.763187
##########      Internal Energy:             0.000000
##########      Receptor Energy:             0.000000
########## Receptor Desolvation:             0.000000
########## Receptor Hydrophobic:             0.000000
##########         Total Energy:           -63.807640
##########        Ligand Charge:             1.000000
##########            Arbitrary:    +999.9990
##########        Ligand Energy:             0.000000

@<TRIPOS>MOLECULE
 ZINC000567723662      none
   49    51     0     0     0



@<TRIPOS>ATOM
      1 C1        -12.7481    14.5293   -11.6393 C.3        1  LIG1   0.0200
      2 O1        -12.7529    15.7892   -12.3135 O.3        1  LIG1  -0.3100
      3 C2        -13.5459    15.8980   -13.4126 C.ar       1  LIG1   0.1700
      4 C3        -13.5930    17.0916   -14.1174 C.ar       1  LIG1  -0.2300
      5 C4        -14.3981    17.2054   -15.2350 C.ar       1  LIG1  -0.0400
      6 C5        -15.1606    16.1258   -15.6541 C.ar       1  LIG1   0.0500
      7 N1        -15.9779    16.2415   -16.7886 N.am       1  LIG1  -0.6200
      8 C6        -16.5099    17.4354   -17.1169 C.2        1  LIG1   0.5000
      9 O2        -16.2822    18.4100   -16.4316 O.2        1  LIG1  -0.5200
     10 C7        -17.3877    17.5597   -18.3355 C.3        1  LIG1   0.0100
     11 H1        -17.7223    18.5919   -18.4387 H          1  LIG1   0.1600
     12 C8        -16.5942    17.1540   -19.5792 C.3        1  LIG1  -0.1800
     13 N2        -18.5546    16.6790   -18.1905 N.4        1  LIG1  -0.3800
     14 H2        -18.2571    15.7196   -18.0941 H          1  LIG1   0.4400
     15 C9        -19.3567    17.0846   -17.0159 C.3        1  LIG1   0.0000
     16 C10       -20.8354    16.8503   -17.3761 C.3        1  LIG1  -0.1400
     17 C11       -20.8182    16.3209   -18.8285 C.3        1  LIG1  -0.0100
     18 H3        -20.8614    15.2318   -18.8427 H          1  LIG1   0.1400
     19 C12       -21.9558    16.9081   -19.6237 C.2        1  LIG1   0.1500
     20 N3        -21.9251    18.0132   -20.3176 N.2        1  LIG1  -0.2600
     21 N4        -23.0704    18.2108   -20.8679 N.2        1  LIG1  -0.2800
     22 C13       -23.8838    17.2407   -20.5503 C.2        1  LIG1   0.1800
     23 N5        -23.1981    16.3837   -19.7557 N.pl3      1  LIG1  -0.5800
     24 C14       -19.4528    16.8213   -19.3649 C.3        1  LIG1   0.0000
     25 C15       -15.1141    14.9258   -14.9475 C.ar       1  LIG1   0.1600
     26 O3        -15.8605    13.8655   -15.3565 O.3        1  LIG1  -0.3200
     27 C16       -15.7631    12.6672   -14.5841 C.3        1  LIG1   0.0200
     28 C17       -14.3024    14.8133   -13.8312 C.ar       1  LIG1  -0.2300
     29 H4        -12.0760    14.5782   -10.7826 H          1  LIG1   0.0600
     30 H5        -13.7564    14.2962   -11.2973 H          1  LIG1   0.0600
     31 H6        -12.4081    13.7521   -12.3239 H          1  LIG1   0.1100
     32 H7        -13.0000    17.9335   -13.7920 H          1  LIG1   0.1400
     33 H8        -14.4335    18.1360   -15.7821 H          1  LIG1   0.1500
     34 H9        -16.1599    15.4621   -17.3367 H          1  LIG1   0.4200
     35 H10       -17.2290    17.2438   -20.4606 H          1  LIG1   0.0900
     36 H11       -15.7284    17.8075   -19.6869 H          1  LIG1   0.1000
     37 H12       -16.2597    16.1218   -19.4760 H          1  LIG1   0.1100
     38 H13       -19.0841    16.4776   -16.1526 H          1  LIG1   0.1500
     39 H14       -19.1901    18.1397   -16.7990 H          1  LIG1   0.1300
     40 H15       -21.2747    16.1091   -16.7084 H          1  LIG1   0.1200
     41 H16       -21.3912    17.7864   -17.3212 H          1  LIG1   0.1000
     42 H17       -24.9116    17.1380   -20.8657 H          1  LIG1   0.2300
     43 H18       -23.5307    15.5640   -19.3577 H          1  LIG1   0.4300
     44 H19       -19.5193    17.8648   -19.6728 H          1  LIG1   0.1400
     45 H20       -19.1114    16.1965   -20.1902 H          1  LIG1   0.1500
     46 H21       -16.4071    11.9021   -15.0176 H          1  LIG1   0.1100
     47 H22       -14.7309    12.3169   -14.5856 H          1  LIG1   0.0600
     48 H23       -16.0770    12.8686   -13.5599 H          1  LIG1   0.0600
     49 H24       -14.2645    13.8840   -13.2822 H          1  LIG1   0.1500
@<TRIPOS>BOND
     1    1    2 1
     2    1   29 1
     3    1   30 1
     4    1   31 1
     5    2    3 1
     6    3   28 ar
     7    3    4 ar
     8    4    5 ar
     9    4   32 1
    10    5    6 ar
    11    5   33 1
    12    6    7 1
    13    6   25 ar
    14    7    8 am
    15    7   34 1
    16    8    9 2
    17    8   10 1
    18   10   11 1
    19   10   12 1
    20   10   13 1
    21   12   35 1
    22   12   36 1
    23   12   37 1
    24   13   14 1
    25   13   24 1
    26   13   15 1
    27   15   16 1
    28   15   38 1
    29   15   39 1
    30   16   17 1
    31   16   40 1
    32   16   41 1
    33   17   18 1
    34   17   19 1
    35   17   24 1
    36   19   23 1
    37   19   20 2
    38   20   21 1
    39   21   22 2
    40   22   23 1
    41   22   42 1
    42   23   43 1
    43   24   44 1
    44   24   45 1
    45   25   26 1
    46   25   28 ar
    47   26   27 1
    48   27   46 1
    49   27   47 1
    50   27   48 1
    51   28   49 1
##########                 Name:     ZINC000625626121
##########          Protonation:                 none
##########               SMILES:   C[C@@H](C1=CC=C(F)C(Cl)=C1)[N@@H+]1C[C@@H](O)[C@H](OC2=CN(C)N=C2)C1
##########            Long Name:   NO_LONG_NAME
##########          FlexRecCode: 1
##########               Number:                 3735
##########   Ligand Source File: /nfs/db/export/3D/EE/ADMO/EEADMO.xalh.db2.gz
##########                 Rank:                    1
##########               Setnum:                  125
##########             Matchnum:                    1
##########                Cloud:                    1
##########        Electrostatic:           -45.503658
##########                 Gist:             0.000000
##########        Van der Waals:           -32.351841
##########  Ligand Polar Desolv:            16.693525
########## Ligand Apolar Desolv:            -2.809169
##########      Internal Energy:             0.000000
##########      Receptor Energy:             0.000000
########## Receptor Desolvation:             0.000000
########## Receptor Hydrophobic:             0.000000
##########         Total Energy:           -63.971142
##########        Ligand Charge:             1.000000
##########            Arbitrary:    +999.9990
##########        Ligand Energy:             0.000000

@<TRIPOS>MOLECULE
 ZINC000625626121      none
   43    45     0     0     0



@<TRIPOS>ATOM
      1 C1        -17.3835    16.3744   -20.2402 C.3        1  LIG1  -0.1800
      2 C2        -17.9571    17.2412   -19.1175 C.3        1  LIG1   0.0900
      3 H1        -17.3650    18.1514   -19.0224 H          1  LIG1   0.1500
      4 C3        -19.3843    17.6017   -19.4404 C.ar       1  LIG1  -0.1400
      5 C4        -19.6611    18.7514   -20.1558 C.ar       1  LIG1  -0.0900
      6 C5        -20.9697    19.0837   -20.4528 C.ar       1  LIG1  -0.1300
      7 C6        -22.0035    18.2645   -20.0343 C.ar       1  LIG1   0.1400
      8 F1        -23.2827    18.5881   -20.3246 F          1  LIG1  -0.1100
      9 C7        -21.7253    17.1114   -19.3173 C.ar       1  LIG1  -0.0700
     10 Cl1       -23.0205    16.0821   -18.7911 Cl         1  LIG1  -0.0200
     11 C8        -20.4152    16.7790   -19.0257 C.ar       1  LIG1  -0.0500
     12 N1        -17.9148    16.4951   -17.8527 N.4        1  LIG1  -0.3900
     13 H2        -18.4588    15.6484   -17.9241 H          1  LIG1   0.4300
     14 C9        -18.4107    17.3387   -16.7350 C.3        1  LIG1  -0.0400
     15 C10       -17.8083    16.6975   -15.4665 C.3        1  LIG1   0.0600
     16 H3        -17.5258    17.4688   -14.7500 H          1  LIG1   0.1200
     17 O1        -18.7427    15.7916   -14.8766 O.3        1  LIG1  -0.5500
     18 C11       -16.5583    15.9378   -15.9565 C.3        1  LIG1   0.0800
     19 H4        -16.6569    14.8723   -15.7481 H          1  LIG1   0.1200
     20 O2        -15.3839    16.4584   -15.3307 O.3        1  LIG1  -0.2800
     21 C12       -14.6480    15.5927   -14.5792 C.2        1  LIG1  -0.0600
     22 C13       -15.1260    14.5234   -13.8963 C.2        1  LIG1   0.0500
     23 N2        -14.0727    13.9253   -13.2807 N.pl3      1  LIG1  -0.3600
     24 C14       -14.1325    12.7307   -12.4348 C.3        1  LIG1   0.1000
     25 N3        -12.9193    14.6537   -13.5992 N.2        1  LIG1  -0.2600
     26 C15       -13.2621    15.6463   -14.3799 C.2        1  LIG1   0.0000
     27 C16       -16.5111    16.1811   -17.4815 C.3        1  LIG1   0.0000
     28 H5        -17.9756    15.4642   -20.3353 H          1  LIG1   0.1100
     29 H6        -17.4148    16.9279   -21.1786 H          1  LIG1   0.0900
     30 H7        -16.3513    16.1136   -20.0066 H          1  LIG1   0.0800
     31 H8        -18.8545    19.3909   -20.4826 H          1  LIG1   0.1400
     32 H9        -21.1852    19.9826   -21.0114 H          1  LIG1   0.1600
     33 H10       -20.1976    15.8805   -18.4673 H          1  LIG1   0.1600
     34 H11       -18.0579    18.3640   -16.8470 H          1  LIG1   0.1500
     35 H12       -19.4997    17.3130   -16.6935 H          1  LIG1   0.1400
     36 H13       -19.0056    15.0642   -15.4571 H          1  LIG1   0.4000
     37 H14       -16.1569    14.2050   -13.8499 H          1  LIG1   0.1900
     38 H15       -13.1311    12.4853   -12.0812 H          1  LIG1   0.0800
     39 H16       -14.7826    12.9220   -11.5810 H          1  LIG1   0.1000
     40 H17       -14.5285    11.8957   -13.0129 H          1  LIG1   0.1000
     41 H18       -12.5921    16.3855   -14.7938 H          1  LIG1   0.1900
     42 H19       -16.1691    15.2848   -17.9990 H          1  LIG1   0.1500
     43 H20       -15.8612    17.0254   -17.7117 H          1  LIG1   0.1500
@<TRIPOS>BOND
     1    1    2 1
     2    1   28 1
     3    1   29 1
     4    1   30 1
     5    2    3 1
     6    2    4 1
     7    2   12 1
     8    4   11 ar
     9    4    5 ar
    10    5    6 ar
    11    5   31 1
    12    6    7 ar
    13    6   32 1
    14    7    8 1
    15    7    9 ar
    16    9   10 1
    17    9   11 ar
    18   11   33 1
    19   12   13 1
    20   12   27 1
    21   12   14 1
    22   14   15 1
    23   14   34 1
    24   14   35 1
    25   15   16 1
    26   15   17 1
    27   15   18 1
    28   17   36 1
    29   18   19 1
    30   18   20 1
    31   18   27 1
    32   20   21 1
    33   21   26 1
    34   21   22 2
    35   22   23 1
    36   22   37 1
    37   23   24 1
    38   23   25 1
    39   24   38 1
    40   24   39 1
    41   24   40 1
    42   25   26 2
    43   26   41 1
    44   27   42 1
    45   27   43 1
##########                 Name:     ZINC000683678403
##########          Protonation:                 none
##########               SMILES:   COC1(CO)CC[NH+](CC(=O)NC2=CC=C(C(F)(F)F)C=C2)CC1
##########            Long Name:   NO_LONG_NAME
##########          FlexRecCode: 1
##########               Number:                  623
##########   Ligand Source File: /nfs/db/export/3D/EE/ADMO/EEADMO.xbio.db2.gz
##########                 Rank:                    1
##########               Setnum:                  159
##########             Matchnum:                    1
##########                Cloud:                    1
##########        Electrostatic:           -46.723400
##########                 Gist:             0.000000
##########        Van der Waals:           -30.856089
##########  Ligand Polar Desolv:            17.386524
########## Ligand Apolar Desolv:            -2.507024
##########      Internal Energy:             0.000000
##########      Receptor Energy:             0.000000
########## Receptor Desolvation:             0.000000
########## Receptor Hydrophobic:             0.000000
##########         Total Energy:           -62.699989
##########        Ligand Charge:             1.000000
##########            Arbitrary:    +999.9990
##########        Ligand Energy:             0.000000

@<TRIPOS>MOLECULE
 ZINC000683678403      none
   46    47     0     0     0



@<TRIPOS>ATOM
      1 C1        -22.5071    18.4207   -20.5153 C.3        1  LIG1   0.0200
      2 O1        -21.5422    18.2691   -19.4722 O.3        1  LIG1  -0.3600
      3 C2        -21.5404    16.9754   -18.8655 C.3        1  LIG1   0.1100
      4 C3        -22.9802    16.4833   -18.7055 C.3        1  LIG1   0.0500
      5 O2        -22.9768    15.1894   -18.0987 O.3        1  LIG1  -0.5600
      6 C4        -20.7583    15.9974   -19.7472 C.3        1  LIG1  -0.1200
      7 C5        -19.3008    16.4545   -19.8378 C.3        1  LIG1  -0.0100
      8 N1        -18.7094    16.4851   -18.4946 N.4        1  LIG1  -0.3700
      9 H1        -18.7918    15.5730   -18.0710 H          1  LIG1   0.4300
     10 C6        -17.2902    16.8507   -18.5942 C.3        1  LIG1  -0.0300
     11 C7        -16.5710    16.4185   -17.3424 C.2        1  LIG1   0.5000
     12 O3        -16.0128    17.2420   -16.6488 O.2        1  LIG1  -0.5100
     13 N2        -16.5482    15.1168   -16.9936 N.am       1  LIG1  -0.6500
     14 C8        -15.8805    14.7156   -15.8313 C.ar       1  LIG1   0.1500
     15 C9        -16.3166    13.6003   -15.1281 C.ar       1  LIG1  -0.1300
     16 C10       -15.6555    13.2069   -13.9811 C.ar       1  LIG1  -0.0500
     17 C11       -14.5606    13.9225   -13.5325 C.ar       1  LIG1  -0.1800
     18 C12       -13.8418    13.4907   -12.2803 C.3        1  LIG1   0.5100
     19 F1        -14.4622    12.3519   -11.7556 F          1  LIG1  -0.1700
     20 F2        -12.5086    13.1965   -12.5858 F          1  LIG1  -0.1700
     21 F3        -13.8872    14.5230   -11.3372 F          1  LIG1  -0.1700
     22 C13       -14.1236    15.0333   -14.2307 C.ar       1  LIG1  -0.0500
     23 C14       -14.7769    15.4285   -15.3815 C.ar       1  LIG1  -0.1200
     24 C15       -19.4091    17.4733   -17.6648 C.3        1  LIG1  -0.0100
     25 C16       -20.8708    17.0553   -17.4906 C.3        1  LIG1  -0.1700
     26 H2        -22.4449    19.4292   -20.9242 H          1  LIG1   0.0500
     27 H3        -22.3063    17.6958   -21.3042 H          1  LIG1   0.0500
     28 H4        -23.5062    18.2526   -20.1133 H          1  LIG1   0.1000
     29 H5        -23.5339    17.1789   -18.0749 H          1  LIG1   0.0600
     30 H6        -23.4548    16.4240   -19.6849 H          1  LIG1   0.0600
     31 H7        -22.5685    15.1671   -17.2224 H          1  LIG1   0.3900
     32 H8        -20.8004    14.9999   -19.3101 H          1  LIG1   0.1000
     33 H9        -21.1960    15.9771   -20.7452 H          1  LIG1   0.1300
     34 H10       -18.7411    15.7605   -20.4649 H          1  LIG1   0.1400
     35 H11       -19.2598    17.4521   -20.2751 H          1  LIG1   0.1400
     36 H12       -16.8468    16.3544   -19.4576 H          1  LIG1   0.1700
     37 H13       -17.2005    17.9307   -18.7104 H          1  LIG1   0.1700
     38 H14       -16.9947    14.4581   -17.5484 H          1  LIG1   0.4200
     39 H15       -17.1721    13.0414   -15.4776 H          1  LIG1   0.1400
     40 H16       -15.9941    12.3397   -13.4338 H          1  LIG1   0.1500
     41 H17       -13.2681    15.5901   -13.8777 H          1  LIG1   0.1500
     42 H18       -14.4351    16.2961   -15.9264 H          1  LIG1   0.1500
     43 H19       -18.9294    17.5314   -16.6878 H          1  LIG1   0.1500
     44 H20       -19.3658    18.4491   -18.1485 H          1  LIG1   0.1300
     45 H21       -21.3889    17.7913   -16.8757 H          1  LIG1   0.1200
     46 H22       -20.9152    16.0797   -17.0067 H          1  LIG1   0.1000
@<TRIPOS>BOND
     1    1    2 1
     2    1   26 1
     3    1   27 1
     4    1   28 1
     5    2    3 1
     6    3   25 1
     7    3    4 1
     8    3    6 1
     9    4    5 1
    10    4   29 1
    11    4   30 1
    12    5   31 1
    13    6    7 1
    14    6   32 1
    15    6   33 1
    16    7    8 1
    17    7   34 1
    18    7   35 1
    19    8    9 1
    20    8   10 1
    21    8   24 1
    22   10   11 1
    23   10   36 1
    24   10   37 1
    25   11   12 2
    26   11   13 am
    27   13   14 1
    28   13   38 1
    29   14   23 ar
    30   14   15 ar
    31   15   16 ar
    32   15   39 1
    33   16   17 ar
    34   16   40 1
    35   17   18 1
    36   17   22 ar
    37   18   19 1
    38   18   20 1
    39   18   21 1
    40   22   23 ar
    41   22   41 1
    42   23   42 1
    43   24   25 1
    44   24   43 1
    45   24   44 1
    46   25   45 1
    47   25   46 1
##########                 Name:     ZINC000364127670
##########          Protonation:                 none
##########               SMILES:   [NH2+]=C(NCC1=CC=CN=C1N1C=NC=N1)NC1=CC=C2CCCC2=C1
##########            Long Name:   NO_LONG_NAME
##########          FlexRecCode: 1
##########               Number:                  270
##########   Ligand Source File: /nfs/db/export/3D/EE/ADRO/EEADRO.xacv.db2.gz
##########                 Rank:                    1
##########               Setnum:                   29
##########             Matchnum:                    1
##########                Cloud:                    1
##########        Electrostatic:           -31.203899
##########                 Gist:             0.000000
##########        Van der Waals:           -34.844807
##########  Ligand Polar Desolv:            10.857662
########## Ligand Apolar Desolv:            -7.698470
##########      Internal Energy:             0.000000
##########      Receptor Energy:             0.000000
########## Receptor Desolvation:             0.000000
########## Receptor Hydrophobic:             0.000000
##########         Total Energy:           -62.889515
##########        Ligand Charge:             1.000000
##########            Arbitrary:    +999.9990
##########        Ligand Energy:             0.000000

@<TRIPOS>MOLECULE
 ZINC000364127670      none
   45    48     0     0     0



@<TRIPOS>ATOM
      1 N1        -17.5191    17.4012   -17.3346 N.pl3      1  LIG1  -0.7800
      2 H1        -17.9636    18.1766   -17.7119 H          1  LIG1   0.4400
      3 H2        -17.3228    17.3689   -16.3852 H          1  LIG1   0.4400
      4 C1        -17.1903    16.4007   -18.1025 C.cat      1  LIG1   0.7400
      5 N2        -17.4711    16.4455   -19.4478 N.pl3      1  LIG1  -0.6700
      6 C2        -18.1397    17.6177   -20.0180 C.3        1  LIG1   0.1600
      7 C3        -19.6327    17.4173   -19.9698 C.ar       1  LIG1  -0.1700
      8 C4        -20.1677    16.2577   -19.4360 C.ar       1  LIG1  -0.0200
      9 C5        -21.5483    16.1157   -19.4120 C.ar       1  LIG1  -0.1700
     10 C6        -22.3406    17.1279   -19.9176 C.ar       1  LIG1   0.1600
     11 N3        -21.8014    18.2217   -20.4200 N.ar       1  LIG1  -0.4900
     12 C7        -20.4904    18.3964   -20.4553 C.ar       1  LIG1   0.3900
     13 N4        -19.9628    19.5727   -20.9974 N.pl3      1  LIG1  -0.3400
     14 C8        -20.6566    20.6131   -21.5009 C.2        1  LIG1   0.3100
     15 N5        -19.7985    21.5134   -21.9066 N.2        1  LIG1  -0.5300
     16 C9        -18.5557    21.0880   -21.6810 C.2        1  LIG1   0.2300
     17 N6        -18.6045    19.9081   -21.1203 N.2        1  LIG1  -0.3400
     18 N7        -16.5620    15.2994   -17.5667 N.pl3      1  LIG1  -0.6300
     19 C10       -15.7332    15.4418   -16.4491 C.ar       1  LIG1   0.1000
     20 C11       -15.0466    16.6302   -16.2379 C.ar       1  LIG1  -0.1600
     21 C12       -14.2305    16.7654   -15.1332 C.ar       1  LIG1  -0.0700
     22 C13       -14.0928    15.7209   -14.2337 C.ar       1  LIG1  -0.0800
     23 C14       -13.2714    15.6221   -12.9657 C.3        1  LIG1  -0.0900
     24 C15       -13.8619    14.4230   -12.1941 C.3        1  LIG1  -0.1200
     25 C16       -14.4589    13.5614   -13.3270 C.3        1  LIG1  -0.0900
     26 C17       -14.7754    14.5359   -14.4413 C.ar       1  LIG1  -0.0600
     27 C18       -15.5990    14.3981   -15.5443 C.ar       1  LIG1  -0.1100
     28 H3        -17.2265    15.7009   -20.0194 H          1  LIG1   0.4300
     29 H4        -17.8734    18.5039   -19.4421 H          1  LIG1   0.1000
     30 H5        -17.8240    17.7485   -21.0530 H          1  LIG1   0.1000
     31 H6        -19.5259    15.4809   -19.0474 H          1  LIG1   0.1500
     32 H7        -21.9981    15.2233   -19.0028 H          1  LIG1   0.1600
     33 H8        -23.4153    17.0223   -19.9016 H          1  LIG1   0.1800
     34 H9        -21.7324    20.6898   -21.5594 H          1  LIG1   0.2300
     35 H10       -17.6537    21.6324   -21.9187 H          1  LIG1   0.2300
     36 H11       -16.6939    14.4245   -17.9643 H          1  LIG1   0.4400
     37 H12       -15.1506    17.4469   -16.9369 H          1  LIG1   0.1400
     38 H13       -13.6967    17.6898   -14.9692 H          1  LIG1   0.1400
     39 H14       -12.2244    15.4382   -13.2067 H          1  LIG1   0.0900
     40 H15       -13.3705    16.5353   -12.3789 H          1  LIG1   0.0900
     41 H16       -13.0792    13.8792   -11.6652 H          1  LIG1   0.0900
     42 H17       -14.6405    14.7510   -11.5054 H          1  LIG1   0.0800
     43 H18       -13.7310    12.8239   -13.6649 H          1  LIG1   0.0900
     44 H19       -15.3690    13.0673   -12.9868 H          1  LIG1   0.0800
     45 H20       -16.1359    13.4746   -15.7035 H          1  LIG1   0.1400
@<TRIPOS>BOND
     1    1    2 1
     2    1    3 1
     3    1    4 2
     4    4    5 1
     5    4   18 1
     6    5    6 1
     7    5   28 1
     8    6    7 1
     9    6   29 1
    10    6   30 1
    11    7   12 ar
    12    7    8 ar
    13    8    9 ar
    14    8   31 1
    15    9   10 ar
    16    9   32 1
    17   10   11 ar
    18   10   33 1
    19   11   12 ar
    20   12   13 1
    21   13   17 1
    22   13   14 1
    23   14   15 2
    24   14   34 1
    25   15   16 1
    26   16   17 2
    27   16   35 1
    28   18   19 1
    29   18   36 1
    30   19   27 ar
    31   19   20 ar
    32   20   21 ar
    33   20   37 1
    34   21   22 ar
    35   21   38 1
    36   22   26 ar
    37   22   23 1
    38   23   24 1
    39   23   39 1
    40   23   40 1
    41   24   25 1
    42   24   41 1
    43   24   42 1
    44   25   26 1
    45   25   43 1
    46   25   44 1
    47   26   27 ar
    48   27   45 1
##########                 Name:     ZINC000512294542
##########          Protonation:                 none
##########               SMILES:   C[C@@H](C1=CC=CC=C1)[N@H+](CC(=O)NC1=CC=C(F)C=C1)C1CC1
##########            Long Name:   NO_LONG_NAME
##########          FlexRecCode: 1
##########               Number:                 5650
##########   Ligand Source File: /nfs/db/export/3D/DH/ADRO/DHADRO.xhn.db2.gz
##########                 Rank:                    1
##########               Setnum:                   22
##########             Matchnum:                    1
##########                Cloud:                    1
##########        Electrostatic:           -37.106068
##########                 Gist:             0.000000
##########        Van der Waals:           -29.966509
##########  Ligand Polar Desolv:             9.418473
########## Ligand Apolar Desolv:            -5.920125
##########      Internal Energy:             0.000000
##########      Receptor Energy:             0.000000
########## Receptor Desolvation:             0.000000
########## Receptor Hydrophobic:             0.000000
##########         Total Energy:           -63.574230
##########        Ligand Charge:             1.000000
##########            Arbitrary:    +999.9990
##########        Ligand Energy:             0.000000

@<TRIPOS>MOLECULE
 ZINC000512294542      none
   45    47     0     0     0



@<TRIPOS>ATOM
      1 C1        -18.7308    18.0100   -21.6336 C.3        1  LIG1  -0.1800
      2 C2        -19.1348    18.1804   -20.1677 C.3        1  LIG1   0.0800
      3 H1        -19.3323    19.2330   -19.9652 H          1  LIG1   0.1500
      4 C3        -20.3779    17.3740   -19.8924 C.ar       1  LIG1  -0.1400
      5 C4        -21.6247    17.9445   -20.0675 C.ar       1  LIG1  -0.1300
      6 C5        -22.7648    17.2048   -19.8149 C.ar       1  LIG1  -0.1000
      7 C6        -22.6582    15.8945   -19.3876 C.ar       1  LIG1  -0.0900
      8 C7        -21.4113    15.3237   -19.2133 C.ar       1  LIG1  -0.1000
      9 C8        -20.2712    16.0620   -19.4700 C.ar       1  LIG1  -0.0900
     10 N1        -18.0450    17.7112   -19.3016 N.4        1  LIG1  -0.3400
     11 H2        -17.8622    16.7367   -19.4891 H          1  LIG1   0.4200
     12 C9        -18.4330    17.8749   -17.8943 C.3        1  LIG1  -0.0300
     13 C10       -17.3150    17.3936   -17.0057 C.2        1  LIG1   0.5000
     14 O1        -16.4510    18.1653   -16.6464 O.2        1  LIG1  -0.5000
     15 N2        -17.2752    16.1058   -16.6105 N.am       1  LIG1  -0.6400
     16 C11       -16.2363    15.6586   -15.7850 C.ar       1  LIG1   0.1100
     17 C12       -16.4553    14.6150   -14.8954 C.ar       1  LIG1  -0.1100
     18 C13       -15.4293    14.1756   -14.0818 C.ar       1  LIG1  -0.1300
     19 C14       -14.1832    14.7750   -14.1525 C.ar       1  LIG1   0.1000
     20 F1        -13.1809    14.3436   -13.3560 F          1  LIG1  -0.1300
     21 C15       -13.9626    15.8158   -15.0390 C.ar       1  LIG1  -0.1300
     22 C16       -14.9842    16.2542   -15.8586 C.ar       1  LIG1  -0.0900
     23 C17       -16.8333    18.4972   -19.5701 C.3        1  LIG1  -0.0900
     24 C18       -15.4841    17.7975   -19.3947 C.3        1  LIG1  -0.1200
     25 C19       -16.0029    18.1180   -20.7979 C.3        1  LIG1  -0.1700
     26 H3        -18.5333    16.9573   -21.8361 H          1  LIG1   0.1100
     27 H4        -19.5396    18.3581   -22.2762 H          1  LIG1   0.1000
     28 H5        -17.8318    18.5933   -21.8328 H          1  LIG1   0.0800
     29 H6        -21.7081    18.9682   -20.4013 H          1  LIG1   0.1200
     30 H7        -23.7391    17.6507   -19.9509 H          1  LIG1   0.1400
     31 H8        -23.5489    15.3168   -19.1895 H          1  LIG1   0.1400
     32 H9        -21.3278    14.3001   -18.8792 H          1  LIG1   0.1400
     33 H10       -19.2969    15.6161   -19.3339 H          1  LIG1   0.1400
     34 H11       -18.6303    18.9275   -17.6919 H          1  LIG1   0.1600
     35 H12       -19.3321    17.2917   -17.6951 H          1  LIG1   0.1600
     36 H13       -17.9661    15.4886   -16.8981 H          1  LIG1   0.4200
     37 H14       -17.4274    14.1478   -14.8395 H          1  LIG1   0.1400
     38 H15       -15.5994    13.3640   -13.3898 H          1  LIG1   0.1500
     39 H16       -12.9900    16.2822   -15.0923 H          1  LIG1   0.1400
     40 H17       -14.8118    17.0659   -16.5498 H          1  LIG1   0.1500
     41 H18       -16.8906    19.5537   -19.3081 H          1  LIG1   0.1700
     42 H19       -14.6534    18.3936   -19.0169 H          1  LIG1   0.1300
     43 H20       -15.4954    16.7540   -19.0800 H          1  LIG1   0.1300
     44 H21       -16.3556    17.2854   -21.4064 H          1  LIG1   0.1300
     45 H22       -15.5135    18.9249   -21.3432 H          1  LIG1   0.1300
@<TRIPOS>BOND
     1    1    2 1
     2    1   26 1
     3    1   27 1
     4    1   28 1
     5    2    3 1
     6    2    4 1
     7    2   10 1
     8    4    9 ar
     9    4    5 ar
    10    5    6 ar
    11    5   29 1
    12    6    7 ar
    13    6   30 1
    14    7    8 ar
    15    7   31 1
    16    8    9 ar
    17    8   32 1
    18    9   33 1
    19   10   11 1
    20   10   12 1
    21   10   23 1
    22   12   13 1
    23   12   34 1
    24   12   35 1
    25   13   14 2
    26   13   15 am
    27   15   16 1
    28   15   36 1
    29   16   22 ar
    30   16   17 ar
    31   17   18 ar
    32   17   37 1
    33   18   19 ar
    34   18   38 1
    35   19   20 1
    36   19   21 ar
    37   21   22 ar
    38   21   39 1
    39   22   40 1
    40   23   25 1
    41   23   24 1
    42   23   41 1
    43   24   25 1
    44   24   42 1
    45   24   43 1
    46   25   44 1
    47   25   45 1
##########                 Name:     ZINC000593910140
##########          Protonation:                 none
##########               SMILES:   O=C(NCCC1=CC=CC=C1[N+](=O)[O-])[C@H]1CC[C@H](C2CC2)[NH2+]1
##########            Long Name:   NO_LONG_NAME
##########          FlexRecCode: 1
##########               Number:                 3641
##########   Ligand Source File: /nfs/db/export/3D/DD/BDRO/DDBDRO.xab.db2.gz
##########                 Rank:                    1
##########               Setnum:                   47
##########             Matchnum:                    1
##########                Cloud:                    1
##########        Electrostatic:           -41.084106
##########                 Gist:             0.000000
##########        Van der Waals:           -32.846687
##########  Ligand Polar Desolv:            14.949106
########## Ligand Apolar Desolv:            -4.983451
##########      Internal Energy:             0.000000
##########      Receptor Energy:             0.000000
########## Receptor Desolvation:             0.000000
########## Receptor Hydrophobic:             0.000000
##########         Total Energy:           -63.965137
##########        Ligand Charge:             1.000000
##########            Arbitrary:    +999.9990
##########        Ligand Energy:             0.000000

@<TRIPOS>MOLECULE
 ZINC000593910140      none
   44    46     0     0     0



@<TRIPOS>ATOM
      1 O1        -16.3415    18.0384   -17.0777 O.2        1  LIG1  -0.5300
      2 C1        -17.0530    17.1171   -17.4174 C.2        1  LIG1   0.5100
      3 N1        -16.9306    15.9151   -16.8200 N.am       1  LIG1  -0.6900
      4 C2        -15.9378    15.7218   -15.7602 C.3        1  LIG1   0.1300
      5 C3        -16.0052    14.2790   -15.2555 C.3        1  LIG1  -0.1100
      6 C4        -14.9840    14.0800   -14.1652 C.ar       1  LIG1  -0.0200
      7 C5        -14.1769    15.1316   -13.7741 C.ar       1  LIG1  -0.1100
      8 C6        -13.2400    14.9490   -12.7739 C.ar       1  LIG1  -0.0600
      9 C7        -13.1108    13.7150   -12.1649 C.ar       1  LIG1  -0.1100
     10 C8        -13.9188    12.6633   -12.5555 C.ar       1  LIG1  -0.0500
     11 C9        -14.8584    12.8470   -13.5524 C.ar       1  LIG1  -0.0400
     12 N2        -15.7234    11.7211   -13.9707 N.pl3      1  LIG1   0.0300
     13 O2        -16.5459    11.8808   -14.8548 O.2        1  LIG1  -0.1500
     14 O3        -15.6128    10.6349   -13.4309 O.2        1  LIG1  -0.1700
     15 C10       -18.0787    17.3178   -18.5034 C.3        1  LIG1   0.0100
     16 H1        -18.0454    18.3435   -18.8707 H          1  LIG1   0.1700
     17 C11       -17.8371    16.3210   -19.6642 C.3        1  LIG1  -0.1300
     18 C12       -19.2484    16.2359   -20.3028 C.3        1  LIG1  -0.1300
     19 C13       -20.1886    16.3383   -19.0835 C.3        1  LIG1   0.0600
     20 H2        -20.4986    15.3415   -18.7696 H          1  LIG1   0.1400
     21 C14       -21.4173    17.1763   -19.4426 C.3        1  LIG1  -0.2000
     22 C15       -22.6432    16.4372   -19.9826 C.3        1  LIG1  -0.1400
     23 C16       -22.6618    17.0167   -18.5668 C.3        1  LIG1  -0.1800
     24 N3        -19.4308    16.9947   -18.0002 N.4        1  LIG1  -0.5000
     25 H3        -19.3577    16.3709   -17.2106 H          1  LIG1   0.4400
     26 H4        -19.9019    17.8424   -17.7216 H          1  LIG1   0.4300
     27 H5        -17.4997    15.1782   -17.0918 H          1  LIG1   0.4100
     28 H6        -14.9416    15.9226   -16.1546 H          1  LIG1   0.0800
     29 H7        -16.1473    16.4048   -14.9371 H          1  LIG1   0.0800
     30 H8        -17.0013    14.0781   -14.8612 H          1  LIG1   0.1200
     31 H9        -15.7956    13.5959   -16.0787 H          1  LIG1   0.0900
     32 H10       -14.2778    16.0958   -14.2499 H          1  LIG1   0.1500
     33 H11       -12.6088    15.7705   -12.4687 H          1  LIG1   0.1500
     34 H12       -12.3784    13.5722   -11.3840 H          1  LIG1   0.1500
     35 H13       -13.8176    11.6991   -12.0799 H          1  LIG1   0.1600
     36 H14       -17.1106    16.7167   -20.3738 H          1  LIG1   0.1300
     37 H15       -17.5209    15.3492   -19.2850 H          1  LIG1   0.1100
     38 H16       -19.4125    17.0685   -20.9871 H          1  LIG1   0.1100
     39 H17       -19.3831    15.2829   -20.8145 H          1  LIG1   0.1200
     40 H18       -21.2090    18.1676   -19.8452 H          1  LIG1   0.1300
     41 H19       -23.2417    16.9421   -20.7410 H          1  LIG1   0.1200
     42 H20       -22.5743    15.3538   -20.0823 H          1  LIG1   0.1100
     43 H21       -22.6050    16.3147   -17.7348 H          1  LIG1   0.1000
     44 H22       -23.2723    17.9029   -18.3937 H          1  LIG1   0.1200
@<TRIPOS>BOND
     1    1    2 2
     2    2    3 am
     3    2   15 1
     4    3    4 1
     5    3   27 1
     6    4    5 1
     7    4   28 1
     8    4   29 1
     9    5    6 1
    10    5   30 1
    11    5   31 1
    12    6   11 ar
    13    6    7 ar
    14    7    8 ar
    15    7   32 1
    16    8    9 ar
    17    8   33 1
    18    9   10 ar
    19    9   34 1
    20   10   11 ar
    21   10   35 1
    22   11   12 1
    23   12   13 2
    24   12   14 2
    25   15   16 1
    26   15   24 1
    27   15   17 1
    28   17   18 1
    29   17   36 1
    30   17   37 1
    31   18   19 1
    32   18   38 1
    33   18   39 1
    34   19   20 1
    35   19   21 1
    36   19   24 1
    37   21   23 1
    38   21   22 1
    39   21   40 1
    40   22   23 1
    41   22   41 1
    42   22   42 1
    43   23   43 1
    44   23   44 1
    45   24   25 1
    46   24   26 1
##########                 Name:     ZINC000020803153
##########          Protonation:                 none
##########               SMILES:   CC1=C(C[N@H+](C)[C@@H](C)C(=O)NC2=CC=CC([N+](=O)[O-])=C2)SC=C1
##########            Long Name:   NO_LONG_NAME
##########          FlexRecCode: 1
##########               Number:                 6215
##########   Ligand Source File: /nfs/db/export/3D/EG/ADMO/EGADMO.xbgl.db2.gz
##########                 Rank:                    1
##########               Setnum:                  115
##########             Matchnum:                    1
##########                Cloud:                    1
##########        Electrostatic:           -43.284809
##########                 Gist:             0.000000
##########        Van der Waals:           -34.797424
##########  Ligand Polar Desolv:            20.219330
########## Ligand Apolar Desolv:            -5.738107
##########      Internal Energy:             0.000000
##########      Receptor Energy:             0.000000
########## Receptor Desolvation:             0.000000
########## Receptor Hydrophobic:             0.000000
##########         Total Energy:           -63.601006
##########        Ligand Charge:             1.000000
##########            Arbitrary:    +999.9990
##########        Ligand Energy:             0.000000

@<TRIPOS>MOLECULE
 ZINC000020803153      none
   43    44     0     0     0



@<TRIPOS>ATOM
      1 C1        -21.0603    18.1418   -21.2253 C.3        1  LIG1  -0.1200
      2 C2        -21.4892    17.2694   -20.0738 C.2        1  LIG1  -0.0400
      3 C3        -20.6537    16.9047   -19.1000 C.2        1  LIG1  -0.2900
      4 C4        -19.2019    17.2983   -19.0081 C.3        1  LIG1   0.0700
      5 N1        -18.6099    16.7076   -17.8004 N.4        1  LIG1  -0.3700
      6 H1        -18.9601    15.7690   -17.6787 H          1  LIG1   0.4300
      7 C5        -18.9702    17.5199   -16.6307 C.3        1  LIG1  -0.0600
      8 C6        -17.1481    16.6707   -17.9394 C.3        1  LIG1   0.0100
      9 H2        -16.8807    16.0678   -18.8073 H          1  LIG1   0.1600
     10 C7        -16.6172    18.0937   -18.1240 C.3        1  LIG1  -0.1800
     11 C8        -16.5408    16.0646   -16.7004 C.2        1  LIG1   0.5000
     12 O1        -16.2310    16.7747   -15.7673 O.2        1  LIG1  -0.4900
     13 N2        -16.3419    14.7335   -16.6295 N.am       1  LIG1  -0.6400
     14 C9        -15.7780    14.1708   -15.4791 C.ar       1  LIG1   0.1300
     15 C10       -16.1067    12.8743   -15.1060 C.ar       1  LIG1  -0.0800
     16 C11       -15.5485    12.3217   -13.9698 C.ar       1  LIG1  -0.0900
     17 C12       -14.6636    13.0581   -13.2041 C.ar       1  LIG1  -0.0600
     18 C13       -14.3345    14.3498   -13.5728 C.ar       1  LIG1  -0.0200
     19 N3        -13.3871    15.1348   -12.7500 N.pl3      1  LIG1   0.0200
     20 O2        -12.8977    14.6431   -11.7489 O.2        1  LIG1  -0.1400
     21 O3        -13.0970    16.2725   -13.0740 O.2        1  LIG1  -0.1500
     22 C14       -14.8840    14.9057   -14.7112 C.ar       1  LIG1  -0.0600
     23 S1        -21.5058    15.8945   -17.9393 S.3        1  LIG1   0.1700
     24 C15       -22.9927    16.0283   -18.8693 C.2        1  LIG1  -0.1700
     25 C16       -22.7814    16.7907   -19.9434 C.2        1  LIG1  -0.1500
     26 H3        -20.0055    18.3942   -21.1167 H          1  LIG1   0.0800
     27 H4        -21.2110    17.6063   -22.1626 H          1  LIG1   0.0700
     28 H5        -21.6540    19.0558   -21.2295 H          1  LIG1   0.0900
     29 H6        -18.6707    16.9354   -19.8880 H          1  LIG1   0.1400
     30 H7        -19.1224    18.3842   -18.9579 H          1  LIG1   0.1400
     31 H8        -18.5309    17.0815   -15.7346 H          1  LIG1   0.1300
     32 H9        -18.5921    18.5338   -16.7619 H          1  LIG1   0.1300
     33 H10       -20.0550    17.5473   -16.5275 H          1  LIG1   0.1300
     34 H11       -15.5325    18.0664   -18.2271 H          1  LIG1   0.1100
     35 H12       -17.0565    18.5321   -19.0199 H          1  LIG1   0.1000
     36 H13       -16.8845    18.6966   -17.2559 H          1  LIG1   0.0900
     37 H14       -16.5895    14.1655   -17.3758 H          1  LIG1   0.4300
     38 H15       -16.7985    12.2988   -15.7033 H          1  LIG1   0.1500
     39 H16       -15.8037    11.3133   -13.6791 H          1  LIG1   0.1600
     40 H17       -14.2287    12.6239   -12.3160 H          1  LIG1   0.1600
     41 H18       -14.6264    15.9143   -14.9988 H          1  LIG1   0.1600
     42 H19       -23.9340    15.5676   -18.6081 H          1  LIG1   0.1800
     43 H20       -23.5578    17.0109   -20.6612 H          1  LIG1   0.1500
@<TRIPOS>BOND
     1    1    2 1
     2    1   26 1
     3    1   27 1
     4    1   28 1
     5    2   25 1
     6    2    3 2
     7    3    4 1
     8    3   23 1
     9    4    5 1
    10    4   29 1
    11    4   30 1
    12    5    6 1
    13    5    7 1
    14    5    8 1
    15    7   31 1
    16    7   32 1
    17    7   33 1
    18    8    9 1
    19    8   10 1
    20    8   11 1
    21   10   34 1
    22   10   35 1
    23   10   36 1
    24   11   12 2
    25   11   13 am
    26   13   14 1
    27   13   37 1
    28   14   22 ar
    29   14   15 ar
    30   15   16 ar
    31   15   38 1
    32   16   17 ar
    33   16   39 1
    34   17   18 ar
    35   17   40 1
    36   18   19 1
    37   18   22 ar
    38   19   20 2
    39   19   21 2
    40   22   41 1
    41   23   24 1
    42   24   25 2
    43   24   42 1
    44   25   43 1
##########                 Name:     ZINC000360136739
##########          Protonation:                 none
##########               SMILES:   CC[C@H](C(=O)NCCCOc1ccccc1C)[NH+](CC)CC
##########            Long Name:   NO_LONG_NAME
##########          FlexRecCode: 1
##########               Number:                 6383
##########   Ligand Source File: /nfs/db/export/3D/DG/ADRO/DGADRO.xbhl.db2.gz
##########                 Rank:                    1
##########               Setnum:                   91
##########             Matchnum:                    1
##########                Cloud:                    1
##########        Electrostatic:           -40.843365
##########                 Gist:             0.000000
##########        Van der Waals:           -30.104599
##########  Ligand Polar Desolv:            11.575858
########## Ligand Apolar Desolv:            -5.202188
##########      Internal Energy:             0.000000
##########      Receptor Energy:             0.000000
########## Receptor Desolvation:             0.000000
########## Receptor Hydrophobic:             0.000000
##########         Total Energy:           -64.574295
##########        Ligand Charge:             1.000000
##########            Arbitrary:    +999.9990
##########        Ligand Energy:             0.000000

@<TRIPOS>MOLECULE
 ZINC000360136739      none
   53    53     0     0     0



@<TRIPOS>ATOM
      1 C1        -16.3937    17.5803   -20.6030 C.3        1  LIG1  -0.1700
      2 C2        -17.4927    16.6777   -20.0387 C.3        1  LIG1  -0.1500
      3 C3        -18.4129    17.4993   -19.1338 C.3        1  LIG1   0.0000
      4 H1        -18.8657    18.3051   -19.7115 H          1  LIG1   0.1600
      5 C4        -17.6111    18.0835   -17.9995 C.2        1  LIG1   0.5100
      6 O1        -17.0936    19.1737   -18.1209 O.2        1  LIG1  -0.5200
      7 N1        -17.4689    17.3945   -16.8499 N.am       1  LIG1  -0.7000
      8 C5        -16.6894    17.9622   -15.7471 C.3        1  LIG1   0.1200
      9 C6        -15.2263    17.5361   -15.8843 C.3        1  LIG1  -0.1300
     10 C7        -15.1337    16.0095   -15.8414 C.3        1  LIG1   0.0600
     11 O2        -15.6530    15.5355   -14.5975 O.3        1  LIG1  -0.3100
     12 C8        -15.6438    14.1914   -14.3971 C.ar       1  LIG1   0.1200
     13 C9        -16.3397    13.3558   -15.2582 C.ar       1  LIG1  -0.2100
     14 C10       -16.3284    11.9896   -15.0526 C.ar       1  LIG1  -0.0900
     15 C11       -15.6247    11.4552   -13.9894 C.ar       1  LIG1  -0.1500
     16 C12       -14.9304    12.2861   -13.1293 C.ar       1  LIG1  -0.0800
     17 C13       -14.9335    13.6521   -13.3340 C.ar       1  LIG1  -0.1100
     18 C14       -14.1764    14.5570   -12.3965 C.3        1  LIG1  -0.1100
     19 N2        -19.4681    16.6325   -18.5921 N.4        1  LIG1  -0.3700
     20 H2        -19.0489    15.8866   -18.0572 H          1  LIG1   0.4200
     21 C15       -20.3517    17.4213   -17.7232 C.3        1  LIG1  -0.0400
     22 C16       -21.4506    16.5185   -17.1590 C.3        1  LIG1  -0.1800
     23 C17       -20.2496    16.0630   -19.6977 C.3        1  LIG1  -0.0300
     24 C18       -20.8852    17.1940   -20.5088 C.3        1  LIG1  -0.1900
     25 H3        -15.7382    16.9950   -21.2477 H          1  LIG1   0.0800
     26 H4        -16.8465    18.3861   -21.1808 H          1  LIG1   0.0900
     27 H5        -15.8136    18.0029   -19.7826 H          1  LIG1   0.0600
     28 H6        -18.0726    16.2549   -20.8591 H          1  LIG1   0.1000
     29 H7        -17.0400    15.8719   -19.4608 H          1  LIG1   0.1100
     30 H8        -17.8830    16.5226   -16.7526 H          1  LIG1   0.4100
     31 H9        -16.7555    19.0498   -15.7776 H          1  LIG1   0.0800
     32 H10       -17.0857    17.6006   -14.7982 H          1  LIG1   0.0900
     33 H11       -14.8301    17.8977   -16.8332 H          1  LIG1   0.0900
     34 H12       -14.6464    17.9586   -15.0639 H          1  LIG1   0.0900
     35 H13       -15.7137    15.5872   -16.6619 H          1  LIG1   0.0700
     36 H14       -14.0913    15.7060   -15.9393 H          1  LIG1   0.0700
     37 H15       -16.8902    13.7728   -16.0886 H          1  LIG1   0.1300
     38 H16       -16.8701    11.3386   -15.7228 H          1  LIG1   0.1300
     39 H17       -15.6173    10.3871   -13.8302 H          1  LIG1   0.1300
     40 H18       -14.3817    11.8663   -12.2992 H          1  LIG1   0.1300
     41 H19       -13.6846    13.9572   -11.6306 H          1  LIG1   0.0700
     42 H20       -13.4270    15.1158   -12.9570 H          1  LIG1   0.0700
     43 H21       -14.8699    15.2524   -11.9237 H          1  LIG1   0.0700
     44 H22       -19.7718    17.8440   -16.9028 H          1  LIG1   0.1300
     45 H23       -20.8045    18.2272   -18.3011 H          1  LIG1   0.1600
     46 H24       -22.1062    17.1038   -16.5143 H          1  LIG1   0.0800
     47 H25       -22.0305    16.0960   -17.9795 H          1  LIG1   0.0800
     48 H26       -20.9979    15.7127   -16.5812 H          1  LIG1   0.1100
     49 H27       -19.5939    15.4776   -20.3425 H          1  LIG1   0.1400
     50 H28       -21.0326    15.4197   -19.2959 H          1  LIG1   0.1500
     51 H29       -21.4650    16.7713   -21.3293 H          1  LIG1   0.0700
     52 H30       -21.5409    17.7792   -19.8643 H          1  LIG1   0.0800
     53 H31       -20.1024    17.8370   -20.9109 H          1  LIG1   0.1100
@<TRIPOS>BOND
     1    1    2 1
     2    1   25 1
     3    1   26 1
     4    1   27 1
     5    2    3 1
     6    2   28 1
     7    2   29 1
     8    3    4 1
     9    3    5 1
    10    3   19 1
    11    5    6 2
    12    5    7 am
    13    7    8 1
    14    7   30 1
    15    8    9 1
    16    8   31 1
    17    8   32 1
    18    9   10 1
    19    9   33 1
    20    9   34 1
    21   10   11 1
    22   10   35 1
    23   10   36 1
    24   11   12 1
    25   12   17 ar
    26   12   13 ar
    27   13   14 ar
    28   13   37 1
    29   14   15 ar
    30   14   38 1
    31   15   16 ar
    32   15   39 1
    33   16   17 ar
    34   16   40 1
    35   17   18 1
    36   18   41 1
    37   18   42 1
    38   18   43 1
    39   19   20 1
    40   19   21 1
    41   19   23 1
    42   21   22 1
    43   21   44 1
    44   21   45 1
    45   22   46 1
    46   22   47 1
    47   22   48 1
    48   23   24 1
    49   23   49 1
    50   23   50 1
    51   24   51 1
    52   24   52 1
    53   24   53 1
##########                 Name:     ZINC000245899191
##########          Protonation:                 none
##########               SMILES:   COC1=CC=C(NC(=O)C[NH2+][C@H]2[C@H](C)CCC[C@@H]2C)C([N+](=O)[O-])=C1
##########            Long Name:   NO_LONG_NAME
##########          FlexRecCode: 1
##########               Number:                  341
##########   Ligand Source File: /nfs/db/export/3D/EF/ADRO/EFADRO.xcoo.db2.gz
##########                 Rank:                    1
##########               Setnum:                   19
##########             Matchnum:                    1
##########                Cloud:                    1
##########        Electrostatic:           -41.079075
##########                 Gist:             0.000000
##########        Van der Waals:           -35.364655
##########  Ligand Polar Desolv:            13.203140
########## Ligand Apolar Desolv:            -4.204415
##########      Internal Energy:             0.000000
##########      Receptor Energy:             0.000000
########## Receptor Desolvation:             0.000000
########## Receptor Hydrophobic:             0.000000
##########         Total Energy:           -67.445000
##########        Ligand Charge:             1.000000
##########            Arbitrary:    +999.9990
##########        Ligand Energy:             0.000000

@<TRIPOS>MOLECULE
 ZINC000245899191      none
   50    51     0     0     0



@<TRIPOS>ATOM
      1 C1        -12.5948    14.5994   -12.5753 C.3        1  LIG1   0.0200
      2 O1        -12.5565    15.9428   -13.0611 O.3        1  LIG1  -0.3000
      3 C2        -13.4895    16.2914   -13.9866 C.ar       1  LIG1   0.1400
      4 C3        -14.4249    15.3601   -14.4129 C.ar       1  LIG1  -0.1400
      5 C4        -15.3728    15.7136   -15.3531 C.ar       1  LIG1  -0.0900
      6 C5        -15.3893    17.0013   -15.8715 C.ar       1  LIG1   0.1600
      7 N1        -16.3510    17.3607   -16.8250 N.am       1  LIG1  -0.6400
      8 C6        -17.6619    17.2846   -16.5216 C.2        1  LIG1   0.5100
      9 O2        -18.0093    16.9050   -15.4232 O.2        1  LIG1  -0.5100
     10 C7        -18.6963    17.6712   -17.5471 C.3        1  LIG1  -0.0400
     11 N2        -19.0633    16.4911   -18.3413 N.4        1  LIG1  -0.4900
     12 H1        -18.2442    16.1320   -18.8084 H          1  LIG1   0.4300
     13 H2        -19.4419    15.7807   -17.7330 H          1  LIG1   0.4300
     14 C8        -20.0715    16.8679   -19.3411 C.3        1  LIG1   0.0300
     15 H3        -20.3438    15.9922   -19.9304 H          1  LIG1   0.1500
     16 C9        -21.3135    17.4124   -18.6328 C.3        1  LIG1  -0.1100
     17 H4        -21.0413    18.2879   -18.0436 H          1  LIG1   0.1000
     18 C10       -21.8879    16.3351   -17.7103 C.3        1  LIG1  -0.1800
     19 C11       -22.3636    17.8047   -19.6741 C.3        1  LIG1  -0.1100
     20 C12       -21.7893    18.8818   -20.5966 C.3        1  LIG1  -0.1300
     21 C13       -20.5472    18.3374   -21.3049 C.3        1  LIG1  -0.1100
     22 C14       -19.4972    17.9450   -20.2636 C.3        1  LIG1  -0.1100
     23 H5        -19.2249    18.8205   -19.6744 H          1  LIG1   0.1000
     24 C15       -18.2552    17.4005   -20.9720 C.3        1  LIG1  -0.1700
     25 C16       -14.4526    17.9332   -15.4444 C.ar       1  LIG1  -0.0300
     26 N3        -14.4694    19.3063   -15.9966 N.pl3      1  LIG1   0.0300
     27 O3        -15.3049    19.6191   -16.8258 O.2        1  LIG1  -0.1100
     28 O4        -13.6477    20.1236   -15.6219 O.2        1  LIG1  -0.1900
     29 C17       -13.5090    17.5802   -14.5002 C.ar       1  LIG1  -0.0700
     30 H6        -11.7991    14.4544   -11.8447 H          1  LIG1   0.1200
     31 H7        -13.5595    14.4107   -12.1043 H          1  LIG1   0.0600
     32 H8        -12.4550    13.9083   -13.4067 H          1  LIG1   0.0600
     33 H9        -14.4117    14.3583   -14.0097 H          1  LIG1   0.1600
     34 H10       -16.1008    14.9883   -15.6851 H          1  LIG1   0.1700
     35 H11       -16.0733    17.6642   -17.7034 H          1  LIG1   0.4300
     36 H12       -19.5811    18.0590   -17.0425 H          1  LIG1   0.1700
     37 H13       -18.2873    18.4385   -18.2044 H          1  LIG1   0.1700
     38 H14       -22.7727    16.7231   -17.2057 H          1  LIG1   0.0500
     39 H15       -22.1602    15.4596   -18.2996 H          1  LIG1   0.0900
     40 H16       -21.1397    16.0556   -16.9685 H          1  LIG1   0.0700
     41 H17       -22.6359    16.9291   -20.2633 H          1  LIG1   0.0800
     42 H18       -23.2485    18.1925   -19.1695 H          1  LIG1   0.0900
     43 H19       -22.5373    19.1613   -21.3384 H          1  LIG1   0.0800
     44 H20       -21.5170    19.7575   -20.0072 H          1  LIG1   0.0700
     45 H21       -20.8196    17.4617   -21.8942 H          1  LIG1   0.0800
     46 H22       -20.1381    19.1047   -21.9621 H          1  LIG1   0.0900
     47 H23       -17.8461    18.1678   -21.6291 H          1  LIG1   0.0900
     48 H24       -17.5070    17.1210   -20.2301 H          1  LIG1   0.0500
     49 H25       -18.5274    16.5250   -21.5612 H          1  LIG1   0.0800
     50 H26       -12.7803    18.3048   -14.1679 H          1  LIG1   0.1700
@<TRIPOS>BOND
     1    1    2 1
     2    1   30 1
     3    1   31 1
     4    1   32 1
     5    2    3 1
     6    3   29 ar
     7    3    4 ar
     8    4    5 ar
     9    4   33 1
    10    5    6 ar
    11    5   34 1
    12    6    7 1
    13    6   25 ar
    14    7    8 am
    15    7   35 1
    16    8    9 2
    17    8   10 1
    18   10   11 1
    19   10   36 1
    20   10   37 1
    21   11   12 1
    22   11   13 1
    23   11   14 1
    24   14   15 1
    25   14   22 1
    26   14   16 1
    27   16   17 1
    28   16   18 1
    29   16   19 1
    30   18   38 1
    31   18   39 1
    32   18   40 1
    33   19   20 1
    34   19   41 1
    35   19   42 1
    36   20   21 1
    37   20   43 1
    38   20   44 1
    39   21   22 1
    40   21   45 1
    41   21   46 1
    42   22   23 1
    43   22   24 1
    44   24   47 1
    45   24   48 1
    46   24   49 1
    47   25   26 1
    48   25   29 ar
    49   26   27 2
    50   26   28 2
    51   29   50 1
##########                 Name:     ZINC000081544880
##########          Protonation:                 none
##########               SMILES:   O=C(C[N@@H+]1CCC12CCC2)NC1=CC=C(I)C=C1
##########            Long Name:   NO_LONG_NAME
##########          FlexRecCode: 1
##########               Number:                12827
##########   Ligand Source File: /nfs/db/export/3D/FF/ADMO/FFADMO.xaiv.db2.gz
##########                 Rank:                    1
##########               Setnum:                   10
##########             Matchnum:                    1
##########                Cloud:                    1
##########        Electrostatic:           -44.858498
##########                 Gist:             0.000000
##########        Van der Waals:           -27.221992
##########  Ligand Polar Desolv:            13.879642
########## Ligand Apolar Desolv:            -4.830772
##########      Internal Energy:             0.000000
##########      Receptor Energy:             0.000000
########## Receptor Desolvation:             0.000000
########## Receptor Hydrophobic:             0.000000
##########         Total Energy:           -63.031620
##########        Ligand Charge:             1.000000
##########            Arbitrary:    +999.9990
##########        Ligand Energy:             0.000000

@<TRIPOS>MOLECULE
 ZINC000081544880      none
   36    38     0     0     0



@<TRIPOS>ATOM
      1 O1        -17.1017    17.9405   -15.8638 O.2        1  LIG1  -0.5100
      2 C1        -17.7782    17.0120   -16.2528 C.2        1  LIG1   0.5000
      3 C2        -19.0575    17.2746   -17.0044 C.3        1  LIG1  -0.0300
      4 N1        -18.9736    16.6700   -18.3405 N.4        1  LIG1  -0.3800
      5 H1        -18.8339    15.6711   -18.3128 H          1  LIG1   0.4400
      6 C3        -18.0393    17.3694   -19.2448 C.3        1  LIG1   0.0000
      7 C4        -19.0448    17.1365   -20.3829 C.3        1  LIG1  -0.1400
      8 C5        -20.0574    17.0836   -19.2383 C.3        1  LIG1   0.0200
      9 C6        -21.3403    16.2580   -19.3604 C.3        1  LIG1  -0.1300
     10 C7        -21.9906    17.2861   -18.4174 C.3        1  LIG1  -0.1500
     11 C8        -20.9354    18.2933   -18.9083 C.3        1  LIG1  -0.1200
     12 N2        -17.3826    15.7452   -16.0175 N.am       1  LIG1  -0.6500
     13 C9        -16.1945    15.5012   -15.3194 C.ar       1  LIG1   0.1400
     14 C10       -16.0636    14.3534   -14.5487 C.ar       1  LIG1  -0.1100
     15 C11       -14.8899    14.1154   -13.8608 C.ar       1  LIG1  -0.0700
     16 C12       -13.8454    15.0189   -13.9390 C.ar       1  LIG1  -0.1000
     17 I1        -12.0668    14.6537   -12.8940 I          1  LIG1  -0.0200
     18 C13       -13.9727    16.1628   -14.7063 C.ar       1  LIG1  -0.0600
     19 C14       -15.1421    16.4036   -15.4006 C.ar       1  LIG1  -0.1300
     20 H2        -19.8949    16.8382   -16.4601 H          1  LIG1   0.1600
     21 H3        -19.2079    18.3500   -17.1010 H          1  LIG1   0.1600
     22 H4        -17.9015    18.4219   -18.9964 H          1  LIG1   0.1500
     23 H5        -17.0956    16.8423   -19.3854 H          1  LIG1   0.1400
     24 H6        -19.1688    17.9885   -21.0513 H          1  LIG1   0.1300
     25 H7        -18.9149    16.1898   -20.9073 H          1  LIG1   0.1300
     26 H8        -21.7649    16.2555   -20.3643 H          1  LIG1   0.1300
     27 H9        -21.2604    15.2594   -18.9306 H          1  LIG1   0.0900
     28 H10       -23.0101    17.5511   -18.6975 H          1  LIG1   0.1000
     29 H11       -21.8935    17.0322   -17.3619 H          1  LIG1   0.0900
     30 H12       -20.5311    18.9240   -18.1165 H          1  LIG1   0.0900
     31 H13       -21.2467    18.8600   -19.7857 H          1  LIG1   0.1300
     32 H14       -17.9216    15.0025   -16.3321 H          1  LIG1   0.4200
     33 H15       -16.8790    13.6479   -14.4870 H          1  LIG1   0.1400
     34 H16       -14.7877    13.2231   -13.2610 H          1  LIG1   0.1400
     35 H17       -13.1554    16.8662   -14.7659 H          1  LIG1   0.1400
     36 H18       -15.2409    17.2967   -15.9998 H          1  LIG1   0.1400
@<TRIPOS>BOND
     1    1    2 2
     2    2    3 1
     3    2   12 am
     4    3    4 1
     5    3   20 1
     6    3   21 1
     7    4    5 1
     8    4    8 1
     9    4    6 1
    10    6    7 1
    11    6   22 1
    12    6   23 1
    13    7    8 1
    14    7   24 1
    15    7   25 1
    16    8   11 1
    17    8    9 1
    18    9   10 1
    19    9   26 1
    20    9   27 1
    21   10   11 1
    22   10   28 1
    23   10   29 1
    24   11   30 1
    25   11   31 1
    26   12   13 1
    27   12   32 1
    28   13   19 ar
    29   13   14 ar
    30   14   15 ar
    31   14   33 1
    32   15   16 ar
    33   15   34 1
    34   16   17 1
    35   16   18 ar
    36   18   19 ar
    37   18   35 1
    38   19   36 1
##########                 Name:     ZINC000114489767
##########          Protonation:                 none
##########               SMILES:   C[N@H+](CC(=O)NC1=CC=CC=C1[N+](=O)[O-])[C@@H]1CCC2=CC=CC=C2C1
##########            Long Name:   NO_LONG_NAME
##########          FlexRecCode: 1
##########               Number:                 2858
##########   Ligand Source File: /nfs/db/export/3D/EG/BDRO/EGBDRO.xbt.db2.gz
##########                 Rank:                    1
##########               Setnum:                   52
##########             Matchnum:                    1
##########                Cloud:                    1
##########        Electrostatic:           -44.410454
##########                 Gist:             0.000000
##########        Van der Waals:           -30.583149
##########  Ligand Polar Desolv:            17.474323
########## Ligand Apolar Desolv:            -6.922688
##########      Internal Energy:             0.000000
##########      Receptor Energy:             0.000000
########## Receptor Desolvation:             0.000000
########## Receptor Hydrophobic:             0.000000
##########         Total Energy:           -64.441971
##########        Ligand Charge:             1.000000
##########            Arbitrary:    +999.9990
##########        Ligand Energy:             0.000000

@<TRIPOS>MOLECULE
 ZINC000114489767      none
   47    49     0     0     0



@<TRIPOS>ATOM
      1 C1        -18.4501    17.4258   -16.8447 C.3        1  LIG1  -0.0600
      2 N1        -18.4307    16.4795   -17.9682 N.4        1  LIG1  -0.3700
      3 H1        -18.7603    15.5788   -17.6548 H          1  LIG1   0.4300
      4 C2        -17.0583    16.3494   -18.4752 C.3        1  LIG1  -0.0300
      5 C3        -16.1622    15.8414   -17.3751 C.2        1  LIG1   0.5100
      6 O1        -15.2170    16.5065   -17.0073 O.2        1  LIG1  -0.5100
      7 N2        -16.4113    14.6483   -16.8001 N.am       1  LIG1  -0.6400
      8 C4        -15.5794    14.1767   -15.7787 C.ar       1  LIG1   0.1900
      9 C5        -14.9396    15.0729   -14.9329 C.ar       1  LIG1  -0.1200
     10 C6        -14.1188    14.6041   -13.9256 C.ar       1  LIG1  -0.0400
     11 C7        -13.9339    13.2440   -13.7593 C.ar       1  LIG1  -0.1200
     12 C8        -14.5694    12.3487   -14.6003 C.ar       1  LIG1  -0.0300
     13 C9        -15.3964    12.8108   -15.6050 C.ar       1  LIG1  -0.0600
     14 N3        -16.0765    11.8521   -16.5044 N.pl3      1  LIG1   0.0300
     15 O2        -16.7972    12.2607   -17.3973 O.2        1  LIG1  -0.1200
     16 O3        -15.9158    10.6545   -16.3517 O.2        1  LIG1  -0.1900
     17 C10       -19.3042    16.9745   -19.0405 C.3        1  LIG1   0.0200
     18 H2        -19.0351    16.4972   -19.9827 H          1  LIG1   0.1500
     19 C11       -19.1519    18.4946   -19.1700 C.3        1  LIG1  -0.1400
     20 C12       -19.8792    18.9459   -20.4350 C.3        1  LIG1  -0.0800
     21 C13       -21.2855    18.4065   -20.4579 C.ar       1  LIG1  -0.0800
     22 C14       -22.1954    19.0099   -21.3162 C.ar       1  LIG1  -0.1100
     23 C15       -23.4973    18.5585   -21.3877 C.ar       1  LIG1  -0.1000
     24 C16       -23.8997    17.4966   -20.5997 C.ar       1  LIG1  -0.1100
     25 C17       -22.9978    16.8973   -19.7446 C.ar       1  LIG1  -0.1100
     26 C18       -21.6880    17.3526   -19.6685 C.ar       1  LIG1  -0.0900
     27 C19       -20.7605    16.6619   -18.7031 C.3        1  LIG1  -0.1000
     28 H3        -18.0941    18.3988   -17.1831 H          1  LIG1   0.1200
     29 H4        -19.4687    17.5223   -16.4684 H          1  LIG1   0.1300
     30 H5        -17.8021    17.0584   -16.0490 H          1  LIG1   0.1400
     31 H6        -17.0439    15.6473   -19.3089 H          1  LIG1   0.1700
     32 H7        -16.7023    17.3226   -18.8135 H          1  LIG1   0.1700
     33 H8        -17.1674    14.1165   -17.0942 H          1  LIG1   0.4300
     34 H9        -15.0831    16.1354   -15.0628 H          1  LIG1   0.1600
     35 H10       -13.6209    15.3006   -13.2674 H          1  LIG1   0.1500
     36 H11       -13.2913    12.8801   -12.9712 H          1  LIG1   0.1600
     37 H12       -14.4225    11.2869   -14.4680 H          1  LIG1   0.1700
     38 H13       -19.5913    18.9829   -18.3001 H          1  LIG1   0.0900
     39 H14       -18.0955    18.7530   -19.2421 H          1  LIG1   0.1000
     40 H15       -19.9114    20.0350   -20.4620 H          1  LIG1   0.1000
     41 H16       -19.3399    18.5810   -21.3091 H          1  LIG1   0.0900
     42 H17       -21.8816    19.8394   -21.9324 H          1  LIG1   0.1300
     43 H18       -24.1994    19.0334   -22.0568 H          1  LIG1   0.1300
     44 H19       -24.9169    17.1373   -20.6528 H          1  LIG1   0.1300
     45 H20       -23.3131    16.0674   -19.1296 H          1  LIG1   0.1300
     46 H21       -20.9198    15.5851   -18.7594 H          1  LIG1   0.1000
     47 H22       -20.9760    17.0039   -17.6908 H          1  LIG1   0.1000
@<TRIPOS>BOND
     1    1    2 1
     2    1   28 1
     3    1   29 1
     4    1   30 1
     5    2    3 1
     6    2    4 1
     7    2   17 1
     8    4    5 1
     9    4   31 1
    10    4   32 1
    11    5    6 2
    12    5    7 am
    13    7    8 1
    14    7   33 1
    15    8   13 ar
    16    8    9 ar
    17    9   10 ar
    18    9   34 1
    19   10   11 ar
    20   10   35 1
    21   11   12 ar
    22   11   36 1
    23   12   13 ar
    24   12   37 1
    25   13   14 1
    26   14   15 2
    27   14   16 2
    28   17   18 1
    29   17   27 1
    30   17   19 1
    31   19   20 1
    32   19   38 1
    33   19   39 1
    34   20   21 1
    35   20   40 1
    36   20   41 1
    37   21   26 ar
    38   21   22 ar
    39   22   23 ar
    40   22   42 1
    41   23   24 ar
    42   23   43 1
    43   24   25 ar
    44   24   44 1
    45   25   26 ar
    46   25   45 1
    47   26   27 1
    48   27   46 1
    49   27   47 1
##########                 Name:     ZINC000623416636
##########          Protonation:                 none
##########               SMILES:   CC[C@H](C)[C@H](O)C[NH2+]CC1=CN(C2=CC=C(F)C=C2)N=N1
##########            Long Name:   NO_LONG_NAME
##########          FlexRecCode: 1
##########               Number:                 5054
##########   Ligand Source File: /nfs/db/export/3D/CD/ADRO/CDADRO.xaza.db2.gz
##########                 Rank:                    1
##########               Setnum:                  168
##########             Matchnum:                    1
##########                Cloud:                    1
##########        Electrostatic:           -47.966042
##########                 Gist:             0.000000
##########        Van der Waals:           -29.804861
##########  Ligand Polar Desolv:            17.299091
########## Ligand Apolar Desolv:            -3.136637
##########      Internal Energy:             0.000000
##########      Receptor Energy:             0.000000
########## Receptor Desolvation:             0.000000
########## Receptor Hydrophobic:             0.000000
##########         Total Energy:           -63.608452
##########        Ligand Charge:             1.000000
##########            Arbitrary:    +999.9990
##########        Ligand Energy:             0.000000

@<TRIPOS>MOLECULE
 ZINC000623416636      none
   43    44     0     0     0



@<TRIPOS>ATOM
      1 C1        -22.7998    19.0701   -20.9521 C.3        1  LIG1  -0.1600
      2 C2        -21.9985    18.5598   -19.7526 C.3        1  LIG1  -0.1200
      3 C3        -21.5282    17.1296   -20.0249 C.3        1  LIG1  -0.1200
      4 H1        -20.8983    17.1173   -20.9144 H          1  LIG1   0.0900
      5 C4        -22.7432    16.2267   -20.2478 C.3        1  LIG1  -0.1600
      6 C5        -20.7268    16.6192   -18.8255 C.3        1  LIG1   0.0900
      7 H2        -20.6957    15.5298   -18.8464 H          1  LIG1   0.1200
      8 O1        -21.3503    17.0549   -17.6158 O.3        1  LIG1  -0.5500
      9 C6        -19.3016    17.1714   -18.8923 C.3        1  LIG1  -0.0500
     10 N1        -18.5321    16.6814   -17.7408 N.4        1  LIG1  -0.5100
     11 H3        -18.9723    16.9891   -16.8866 H          1  LIG1   0.4400
     12 H4        -18.5035    15.6731   -17.7601 H          1  LIG1   0.4300
     13 C7        -17.1636    17.2116   -17.8049 C.3        1  LIG1   0.1000
     14 C8        -16.3743    16.7088   -16.6236 C.2        1  LIG1  -0.1000
     15 C9        -16.3434    15.4406   -16.1512 C.2        1  LIG1   0.0000
     16 N2        -15.5024    15.4580   -15.0813 N.pl3      1  LIG1  -0.2200
     17 C10       -15.1678    14.3569   -14.2787 C.ar       1  LIG1   0.0800
     18 C11       -14.2971    14.5155   -13.2092 C.ar       1  LIG1  -0.0800
     19 C12       -13.9693    13.4307   -12.4200 C.ar       1  LIG1  -0.1300
     20 C13       -14.5086    12.1851   -12.6949 C.ar       1  LIG1   0.1300
     21 F1        -14.1868    11.1249   -11.9218 F          1  LIG1  -0.1200
     22 C14       -15.3778    12.0251   -13.7611 C.ar       1  LIG1  -0.1300
     23 C15       -15.7115    13.1087   -14.5496 C.ar       1  LIG1  -0.0600
     24 N3        -15.0666    16.6603   -14.9341 N.2        1  LIG1  -0.0500
     25 N4        -15.5625    17.4270   -15.8399 N.2        1  LIG1  -0.2300
     26 H5        -23.1349    20.0890   -20.7582 H          1  LIG1   0.0600
     27 H6        -22.1699    19.0578   -21.8415 H          1  LIG1   0.0600
     28 H7        -23.6654    18.4270   -21.1109 H          1  LIG1   0.0600
     29 H8        -21.1329    19.2029   -19.5938 H          1  LIG1   0.0700
     30 H9        -22.6284    18.5720   -18.8631 H          1  LIG1   0.0700
     31 H10       -22.4078    15.2078   -20.4417 H          1  LIG1   0.0800
     32 H11       -23.3729    16.2389   -19.3581 H          1  LIG1   0.0600
     33 H12       -23.3140    16.5901   -21.1021 H          1  LIG1   0.0600
     34 H13       -20.8948    16.7671   -16.8127 H          1  LIG1   0.3900
     35 H14       -18.8260    16.8390   -19.8150 H          1  LIG1   0.1500
     36 H15       -19.3325    18.2607   -18.8714 H          1  LIG1   0.1400
     37 H16       -16.6880    16.8791   -18.7277 H          1  LIG1   0.1500
     38 H17       -17.1946    18.3009   -17.7841 H          1  LIG1   0.1500
     39 H18       -16.8780    14.5880   -16.5434 H          1  LIG1   0.2100
     40 H19       -13.8761    15.4866   -12.9947 H          1  LIG1   0.1500
     41 H20       -13.2917    13.5536   -11.5881 H          1  LIG1   0.1600
     42 H21       -15.7977    11.0531   -13.9740 H          1  LIG1   0.1600
     43 H22       -16.3894    12.9837   -15.3810 H          1  LIG1   0.1600
@<TRIPOS>BOND
     1    1    2 1
     2    1   26 1
     3    1   27 1
     4    1   28 1
     5    2    3 1
     6    2   29 1
     7    2   30 1
     8    3    4 1
     9    3    5 1
    10    3    6 1
    11    5   31 1
    12    5   32 1
    13    5   33 1
    14    6    7 1
    15    6    8 1
    16    6    9 1
    17    8   34 1
    18    9   10 1
    19    9   35 1
    20    9   36 1
    21   10   11 1
    22   10   12 1
    23   10   13 1
    24   13   14 1
    25   13   37 1
    26   13   38 1
    27   14   25 1
    28   14   15 2
    29   15   16 1
    30   15   39 1
    31   16   17 1
    32   16   24 1
    33   17   23 ar
    34   17   18 ar
    35   18   19 ar
    36   18   40 1
    37   19   20 ar
    38   19   41 1
    39   20   21 1
    40   20   22 ar
    41   22   23 ar
    42   22   42 1
    43   23   43 1
    44   24   25 2
##########                 Name:     ZINC000352667404
##########          Protonation:                 none
##########               SMILES:   CC1=CC(C)=CC(NC(=O)[C@H](C)[N@@H+](C)[C@H]2CCC[C@@H]2O)=C1
##########            Long Name:   NO_LONG_NAME
##########          FlexRecCode: 1
##########               Number:                 4026
##########   Ligand Source File: /nfs/db/export/3D/CE/ADMO/CEADMO.xbgu.db2.gz
##########                 Rank:                    1
##########               Setnum:                   48
##########             Matchnum:                    1
##########                Cloud:                    1
##########        Electrostatic:           -42.026989
##########                 Gist:             0.000000
##########        Van der Waals:           -28.809164
##########  Ligand Polar Desolv:            12.229666
########## Ligand Apolar Desolv:            -3.801050
##########      Internal Energy:             0.000000
##########      Receptor Energy:             0.000000
########## Receptor Desolvation:             0.000000
########## Receptor Hydrophobic:             0.000000
##########         Total Energy:           -62.407536
##########        Ligand Charge:             1.000000
##########            Arbitrary:    +999.9990
##########        Ligand Energy:             0.000000

@<TRIPOS>MOLECULE
 ZINC000352667404      none
   48    49     0     0     0



@<TRIPOS>ATOM
      1 C1        -13.1538    15.4692   -12.3182 C.3        1  LIG1  -0.1200
      2 C2        -14.0637    14.5407   -13.0804 C.ar       1  LIG1  -0.0600
      3 C3        -14.1907    13.2212   -12.6868 C.ar       1  LIG1  -0.1200
      4 C4        -15.0245    12.3660   -13.3836 C.ar       1  LIG1  -0.0600
      5 C5        -15.1599    10.9287   -12.9513 C.3        1  LIG1  -0.1200
      6 C6        -15.7338    12.8278   -14.4751 C.ar       1  LIG1  -0.1200
      7 C7        -15.6087    14.1525   -14.8726 C.ar       1  LIG1   0.1300
      8 N1        -16.3263    14.6235   -15.9776 N.am       1  LIG1  -0.6400
      9 C8        -15.8236    15.6207   -16.7323 C.2        1  LIG1   0.5100
     10 O1        -14.7493    16.1096   -16.4537 O.2        1  LIG1  -0.5100
     11 C9        -16.5966    16.1279   -17.9225 C.3        1  LIG1   0.0000
     12 H1        -16.7495    15.3133   -18.6304 H          1  LIG1   0.1600
     13 C10       -15.8098    17.2516   -18.6002 C.3        1  LIG1  -0.1800
     14 N2        -17.8990    16.6413   -17.4777 N.4        1  LIG1  -0.3600
     15 H2        -18.4177    15.9003   -17.0307 H          1  LIG1   0.4300
     16 C11       -17.6928    17.7391   -16.5236 C.3        1  LIG1  -0.0600
     17 C12       -18.6525    17.1358   -18.6378 C.3        1  LIG1   0.0200
     18 H3        -18.3099    18.1321   -18.9176 H          1  LIG1   0.1600
     19 C13       -18.5123    16.1591   -19.8316 C.3        1  LIG1  -0.1400
     20 C14       -19.7721    16.4698   -20.6773 C.3        1  LIG1  -0.1200
     21 C15       -20.8768    16.7240   -19.6309 C.3        1  LIG1  -0.1600
     22 C16       -20.1647    17.1508   -18.3329 C.3        1  LIG1   0.0900
     23 H4        -20.3898    16.4444   -17.5338 H          1  LIG1   0.0800
     24 O2        -20.5806    18.4647   -17.9556 O.3        1  LIG1  -0.5600
     25 C17       -14.7742    15.0100   -14.1678 C.ar       1  LIG1  -0.1400
     26 H5        -12.6819    14.9249   -11.5001 H          1  LIG1   0.0800
     27 H6        -12.3858    15.8562   -12.9879 H          1  LIG1   0.0700
     28 H7        -13.7357    16.2982   -11.9150 H          1  LIG1   0.0700
     29 H8        -13.6372    12.8578   -11.8337 H          1  LIG1   0.1300
     30 H9        -15.8546    10.4136   -13.6148 H          1  LIG1   0.0800
     31 H10       -14.1855    10.4422   -12.9970 H          1  LIG1   0.0700
     32 H11       -15.5375    10.8906   -11.9295 H          1  LIG1   0.0700
     33 H12       -16.3845    12.1593   -15.0191 H          1  LIG1   0.1300
     34 H13       -17.1855    14.2324   -16.2005 H          1  LIG1   0.4200
     35 H14       -16.3688    17.6185   -19.4610 H          1  LIG1   0.0900
     36 H15       -15.6569    18.0662   -17.8923 H          1  LIG1   0.1100
     37 H16       -14.8434    16.8706   -18.9302 H          1  LIG1   0.1000
     38 H17       -18.6593    18.1200   -16.1935 H          1  LIG1   0.1200
     39 H18       -17.1337    17.3721   -15.6629 H          1  LIG1   0.1300
     40 H19       -17.1325    18.5396   -17.0065 H          1  LIG1   0.1400
     41 H20       -17.6052    16.3694   -20.3984 H          1  LIG1   0.1000
     42 H21       -18.5231    15.1248   -19.4879 H          1  LIG1   0.0900
     43 H22       -19.6125    17.3590   -21.2872 H          1  LIG1   0.0900
     44 H23       -20.0302    15.6168   -21.3049 H          1  LIG1   0.0900
     45 H24       -21.5375    17.5212   -19.9715 H          1  LIG1   0.0900
     46 H25       -21.4484    15.8113   -19.4622 H          1  LIG1   0.0900
     47 H26       -20.4271    19.1361   -18.6346 H          1  LIG1   0.4000
     48 H27       -14.6749    16.0408   -14.4745 H          1  LIG1   0.1300
@<TRIPOS>BOND
     1    1    2 1
     2    1   26 1
     3    1   27 1
     4    1   28 1
     5    2   25 ar
     6    2    3 ar
     7    3    4 ar
     8    3   29 1
     9    4    5 1
    10    4    6 ar
    11    5   30 1
    12    5   31 1
    13    5   32 1
    14    6    7 ar
    15    6   33 1
    16    7    8 1
    17    7   25 ar
    18    8    9 am
    19    8   34 1
    20    9   10 2
    21    9   11 1
    22   11   12 1
    23   11   13 1
    24   11   14 1
    25   13   35 1
    26   13   36 1
    27   13   37 1
    28   14   15 1
    29   14   16 1
    30   14   17 1
    31   16   38 1
    32   16   39 1
    33   16   40 1
    34   17   18 1
    35   17   22 1
    36   17   19 1
    37   19   20 1
    38   19   41 1
    39   19   42 1
    40   20   21 1
    41   20   43 1
    42   20   44 1
    43   21   22 1
    44   21   45 1
    45   21   46 1
    46   22   23 1
    47   22   24 1
    48   24   47 1
    49   25   48 1
##########                 Name:     ZINC000595111777
##########          Protonation:                 none
##########               SMILES:   O=C(N[C@H]1CC[N@H+](CC2CC2)C1)C(=O)N1CCC2=CC(F)=C(F)C=C21
##########            Long Name:   NO_LONG_NAME
##########          FlexRecCode: 1
##########               Number:                 5074
##########   Ligand Source File: /nfs/db/export/3D/ED/ADRO/EDADRO.xdto.db2.gz
##########                 Rank:                    1
##########               Setnum:                  121
##########             Matchnum:                    1
##########                Cloud:                    1
##########        Electrostatic:           -40.998230
##########                 Gist:             0.000000
##########        Van der Waals:           -35.173073
##########  Ligand Polar Desolv:            17.042252
########## Ligand Apolar Desolv:            -5.329567
##########      Internal Energy:             0.000000
##########      Receptor Energy:             0.000000
########## Receptor Desolvation:             0.000000
########## Receptor Hydrophobic:             0.000000
##########         Total Energy:           -64.458618
##########        Ligand Charge:             1.000000
##########            Arbitrary:    +999.9990
##########        Ligand Energy:             0.000000

@<TRIPOS>MOLECULE
 ZINC000595111777      none
   47    50     0     0     0



@<TRIPOS>ATOM
      1 O1        -16.8224    18.3039   -16.0336 O.2        1  LIG1  -0.4900
      2 C1        -16.1859    17.3264   -16.3691 C.2        1  LIG1   0.5300
      3 N1        -16.4146    16.7517   -17.5665 N.am       1  LIG1  -0.7000
      4 C2        -17.4315    17.3069   -18.4633 C.3        1  LIG1   0.1300
      5 H1        -17.1927    18.3383   -18.7228 H          1  LIG1   0.1300
      6 C3        -17.5696    16.4377   -19.7409 C.3        1  LIG1  -0.1600
      7 C4        -19.0288    16.7368   -20.1664 C.3        1  LIG1  -0.0100
      8 N2        -19.7775    16.8466   -18.8963 N.4        1  LIG1  -0.3900
      9 H2        -20.2110    15.9615   -18.6801 H          1  LIG1   0.4300
     10 C5        -20.8080    17.8863   -19.0182 C.3        1  LIG1   0.0300
     11 C6        -21.7736    17.5176   -20.1463 C.3        1  LIG1  -0.2200
     12 C7        -23.0162    16.7057   -19.7754 C.3        1  LIG1  -0.1700
     13 C8        -23.1506    18.1845   -20.1439 C.3        1  LIG1  -0.1500
     14 C9        -18.8324    17.2158   -17.8226 C.3        1  LIG1  -0.0200
     15 C10       -15.1451    16.7641   -15.4576 C.2        1  LIG1   0.5100
     16 O2        -14.2028    17.4489   -15.1167 O.2        1  LIG1  -0.4900
     17 N3        -15.2521    15.4959   -15.0136 N.am       1  LIG1  -0.5200
     18 C11       -16.3402    14.5758   -15.3549 C.3        1  LIG1   0.1100
     19 C12       -16.0126    13.2705   -14.6115 C.3        1  LIG1  -0.0900
     20 C13       -14.7204    13.5623   -13.8822 C.ar       1  LIG1  -0.1000
     21 C14       -13.9489    12.7693   -13.0547 C.ar       1  LIG1  -0.0800
     22 C15       -12.7871    13.2716   -12.4949 C.ar       1  LIG1   0.0600
     23 F1        -12.0335    12.4953   -11.6859 F          1  LIG1  -0.1200
     24 C16       -12.3990    14.5749   -12.7678 C.ar       1  LIG1   0.1000
     25 F2        -11.2653    15.0684   -12.2236 F          1  LIG1  -0.1200
     26 C17       -13.1681    15.3687   -13.5948 C.ar       1  LIG1  -0.1300
     27 C18       -14.3385    14.8648   -14.1656 C.ar       1  LIG1   0.1500
     28 H3        -15.9060    15.9706   -17.8346 H          1  LIG1   0.4200
     29 H4        -16.8656    16.7577   -20.5090 H          1  LIG1   0.1300
     30 H5        -17.4392    15.3805   -19.5099 H          1  LIG1   0.1100
     31 H6        -19.0783    17.6753   -20.7184 H          1  LIG1   0.1400
     32 H7        -19.4232    15.9193   -20.7700 H          1  LIG1   0.1400
     33 H8        -21.3579    17.9648   -18.0803 H          1  LIG1   0.1300
     34 H9        -20.3349    18.8422   -19.2430 H          1  LIG1   0.1300
     35 H10       -21.3124    17.3188   -21.1138 H          1  LIG1   0.1300
     36 H11       -23.3728    15.9723   -20.4988 H          1  LIG1   0.1100
     37 H12       -23.1459    16.4343   -18.7277 H          1  LIG1   0.1100
     38 H13       -23.3686    18.8861   -19.3385 H          1  LIG1   0.1100
     39 H14       -23.5956    18.4242   -21.1097 H          1  LIG1   0.1100
     40 H15       -18.8340    16.4494   -17.0474 H          1  LIG1   0.1400
     41 H16       -19.1136    18.1785   -17.3958 H          1  LIG1   0.1500
     42 H17       -17.2949    14.9759   -15.0133 H          1  LIG1   0.1000
     43 H18       -16.3652    14.4023   -16.4307 H          1  LIG1   0.1000
     44 H19       -16.8035    13.0283   -13.9017 H          1  LIG1   0.1100
     45 H20       -15.8732    12.4541   -15.3202 H          1  LIG1   0.1100
     46 H21       -14.2534    11.7547   -12.8437 H          1  LIG1   0.1600
     47 H22       -12.8612    16.3828   -13.8040 H          1  LIG1   0.1600
@<TRIPOS>BOND
     1    1    2 2
     2    2    3 am
     3    2   15 1
     4    3    4 1
     5    3   28 1
     6    4    5 1
     7    4   14 1
     8    4    6 1
     9    6    7 1
    10    6   29 1
    11    6   30 1
    12    7    8 1
    13    7   31 1
    14    7   32 1
    15    8    9 1
    16    8   10 1
    17    8   14 1
    18   10   11 1
    19   10   33 1
    20   10   34 1
    21   11   13 1
    22   11   12 1
    23   11   35 1
    24   12   13 1
    25   12   36 1
    26   12   37 1
    27   13   38 1
    28   13   39 1
    29   14   40 1
    30   14   41 1
    31   15   16 2
    32   15   17 am
    33   17   27 1
    34   17   18 1
    35   18   19 1
    36   18   42 1
    37   18   43 1
    38   19   20 1
    39   19   44 1
    40   19   45 1
    41   20   27 ar
    42   20   21 ar
    43   21   22 ar
    44   21   46 1
    45   22   23 1
    46   22   24 ar
    47   24   25 1
    48   24   26 ar
    49   26   27 ar
    50   26   47 1
##########                 Name:     ZINC000277917300
##########          Protonation:                 none
##########               SMILES:   O=C1N[C@@H](C2CC2)C(=O)N1C[C@@H]1CSCC[N@@H+]1CC1=CC=CC=C1
##########            Long Name:   NO_LONG_NAME
##########          FlexRecCode: 1
##########               Number:                10463
##########   Ligand Source File: /nfs/db/export/3D/ED/ADRO/EDADRO.xbew.db2.gz
##########                 Rank:                    1
##########               Setnum:                    7
##########             Matchnum:                    1
##########                Cloud:                    1
##########        Electrostatic:           -37.523888
##########                 Gist:             0.000000
##########        Van der Waals:           -33.574829
##########  Ligand Polar Desolv:            13.155600
########## Ligand Apolar Desolv:            -4.891178
##########      Internal Energy:             0.000000
##########      Receptor Energy:             0.000000
########## Receptor Desolvation:             0.000000
########## Receptor Hydrophobic:             0.000000
##########         Total Energy:           -62.834297
##########        Ligand Charge:             1.000000
##########            Arbitrary:    +999.9990
##########        Ligand Energy:             0.000000

@<TRIPOS>MOLECULE
 ZINC000277917300      none
   48    51     0     0     0



@<TRIPOS>ATOM
      1 O1        -15.0828    18.2279   -15.2131 O.2        1  LIG1  -0.5400
      2 C1        -15.0017    17.0212   -15.0931 C.2        1  LIG1   0.7000
      3 N1        -13.9535    16.3945   -14.5290 N.am       1  LIG1  -0.7100
      4 C2        -14.2474    14.9520   -14.5806 C.3        1  LIG1   0.1200
      5 H1        -13.4993    14.4291   -15.1764 H          1  LIG1   0.1400
      6 C3        -14.3150    14.3655   -13.1690 C.3        1  LIG1  -0.1700
      7 C4        -13.8817    12.9094   -12.9876 C.3        1  LIG1  -0.1600
      8 C5        -12.9907    14.0423   -12.4742 C.3        1  LIG1  -0.1600
      9 C6        -15.6044    14.8888   -15.2533 C.2        1  LIG1   0.5200
     10 O2        -16.2494    13.8945   -15.5089 O.2        1  LIG1  -0.4200
     11 N2        -15.9476    16.1679   -15.5023 N.am       1  LIG1  -0.5800
     12 C7        -17.1978    16.5736   -16.1494 C.3        1  LIG1   0.1000
     13 C8        -16.9945    16.6253   -17.6619 C.3        1  LIG1   0.0000
     14 H2        -16.3611    15.7538   -17.9610 H          1  LIG1   0.1600
     15 C9        -16.2911    17.9100   -18.0957 C.3        1  LIG1  -0.1300
     16 S1        -15.9016    17.9070   -19.8707 S.3        1  LIG1  -0.1500
     17 C10       -17.5563    17.5343   -20.5154 C.3        1  LIG1  -0.1400
     18 C11       -18.1512    16.2908   -19.8757 C.3        1  LIG1  -0.0300
     19 N3        -18.3261    16.4491   -18.3801 N.4        1  LIG1  -0.3800
     20 H3        -18.6806    15.4792   -18.0595 H          1  LIG1   0.4200
     21 C12       -19.4171    17.4268   -18.0188 C.3        1  LIG1   0.0400
     22 C13       -20.7551    16.8525   -18.4070 C.ar       1  LIG1  -0.1600
     23 C14       -21.2702    17.0906   -19.6676 C.ar       1  LIG1  -0.1000
     24 C15       -22.4976    16.5637   -20.0237 C.ar       1  LIG1  -0.1100
     25 C16       -23.2097    15.7982   -19.1193 C.ar       1  LIG1  -0.0800
     26 C17       -22.6943    15.5592   -17.8591 C.ar       1  LIG1  -0.1100
     27 C18       -21.4649    16.0827   -17.5045 C.ar       1  LIG1  -0.0900
     28 H4        -13.1588    16.8113   -14.1605 H          1  LIG1   0.4500
     29 H5        -15.1337    14.7285   -12.5479 H          1  LIG1   0.1100
     30 H6        -14.4156    12.3140   -12.2469 H          1  LIG1   0.1100
     31 H7        -13.5486    12.3691   -13.8738 H          1  LIG1   0.1100
     32 H8        -12.0714    14.2475   -13.0228 H          1  LIG1   0.1000
     33 H9        -12.9383    14.1923   -11.3959 H          1  LIG1   0.1100
     34 H10       -17.9801    15.8526   -15.9124 H          1  LIG1   0.1200
     35 H11       -17.4906    17.5594   -15.7882 H          1  LIG1   0.1400
     36 H12       -16.9384    18.7772   -17.8612 H          1  LIG1   0.1400
     37 H13       -15.3571    18.0290   -17.5130 H          1  LIG1   0.1200
     38 H14       -18.2264    18.3983   -20.3323 H          1  LIG1   0.1600
     39 H15       -17.5004    17.3919   -21.6135 H          1  LIG1   0.1100
     40 H16       -19.1352    16.0758   -20.3060 H          1  LIG1   0.1400
     41 H17       -17.5000    15.4270   -20.0464 H          1  LIG1   0.1500
     42 H18       -19.3987    17.6114   -16.9447 H          1  LIG1   0.1400
     43 H19       -19.2559    18.3642   -18.5513 H          1  LIG1   0.1400
     44 H20       -20.7138    17.6886   -20.3741 H          1  LIG1   0.1300
     45 H21       -22.9001    16.7503   -21.0082 H          1  LIG1   0.1400
     46 H22       -24.1690    15.3871   -19.3972 H          1  LIG1   0.1400
     47 H23       -23.2509    14.9615   -17.1525 H          1  LIG1   0.1400
     48 H24       -21.0622    15.8960   -16.5199 H          1  LIG1   0.1300
@<TRIPOS>BOND
     1    1    2 2
     2    2   11 am
     3    2    3 am
     4    3    4 1
     5    3   28 1
     6    4    5 1
     7    4    6 1
     8    4    9 1
     9    6    8 1
    10    6    7 1
    11    6   29 1
    12    7    8 1
    13    7   30 1
    14    7   31 1
    15    8   32 1
    16    8   33 1
    17    9   10 2
    18    9   11 am
    19   11   12 1
    20   12   13 1
    21   12   34 1
    22   12   35 1
    23   13   14 1
    24   13   19 1
    25   13   15 1
    26   15   16 1
    27   15   36 1
    28   15   37 1
    29   16   17 1
    30   17   18 1
    31   17   38 1
    32   17   39 1
    33   18   19 1
    34   18   40 1
    35   18   41 1
    36   19   20 1
    37   19   21 1
    38   21   22 1
    39   21   42 1
    40   21   43 1
    41   22   27 ar
    42   22   23 ar
    43   23   24 ar
    44   23   44 1
    45   24   25 ar
    46   24   45 1
    47   25   26 ar
    48   25   46 1
    49   26   27 ar
    50   26   47 1
    51   27   48 1
##########                 Name:     ZINC000610879195
##########          Protonation:                 none
##########               SMILES:   CC1CC[NH+](CC(=O)NC2=CC(I)=CC=C2O)CC1
##########            Long Name:   NO_LONG_NAME
##########          FlexRecCode: 1
##########               Number:                13127
##########   Ligand Source File: /nfs/db/export/3D/FF/ADMO/FFADMO.xbnb.db2.gz
##########                 Rank:                    1
##########               Setnum:                  161
##########             Matchnum:                    1
##########                Cloud:                    1
##########        Electrostatic:           -45.403965
##########                 Gist:             0.000000
##########        Van der Waals:           -28.143190
##########  Ligand Polar Desolv:            13.626796
########## Ligand Apolar Desolv:            -3.507445
##########      Internal Energy:             0.000000
##########      Receptor Energy:             0.000000
########## Receptor Desolvation:             0.000000
########## Receptor Hydrophobic:             0.000000
##########         Total Energy:           -63.427807
##########        Ligand Charge:             1.000000
##########            Arbitrary:    +999.9990
##########        Ligand Energy:             0.000000

@<TRIPOS>MOLECULE
 ZINC000610879195      none
   39    40     0     0     0



@<TRIPOS>ATOM
      1 C1        -22.7620    16.5025   -19.1016 C.3        1  LIG1  -0.1500
      2 C2        -21.3675    17.0464   -18.7845 C.3        1  LIG1  -0.1000
      3 C3        -21.0295    16.7649   -17.3176 C.3        1  LIG1  -0.1400
      4 C4        -19.6039    17.2398   -17.0282 C.3        1  LIG1  -0.0100
      5 N1        -18.6604    16.5240   -17.8953 N.4        1  LIG1  -0.3700
      6 H1        -18.7618    15.5302   -17.7530 H          1  LIG1   0.4300
      7 C5        -17.2880    16.9273   -17.5613 C.3        1  LIG1  -0.0300
      8 C6        -16.8293    16.1810   -16.3349 C.2        1  LIG1   0.5000
      9 O1        -17.0192    16.6507   -15.2329 O.2        1  LIG1  -0.5100
     10 N2        -16.2081    14.9918   -16.4628 N.am       1  LIG1  -0.6400
     11 C7        -15.7818    14.2980   -15.3226 C.ar       1  LIG1   0.1000
     12 C8        -14.8703    14.8805   -14.4546 C.ar       1  LIG1  -0.0700
     13 C9        -14.4510    14.1936   -13.3300 C.ar       1  LIG1  -0.1000
     14 I1        -13.0741    15.0753   -12.0200 I          1  LIG1  -0.0100
     15 C10       -14.9385    12.9264   -13.0679 C.ar       1  LIG1  -0.0700
     16 C11       -15.8472    12.3395   -13.9294 C.ar       1  LIG1  -0.1200
     17 C12       -16.2765    13.0232   -15.0548 C.ar       1  LIG1   0.1100
     18 O2        -17.1703    12.4472   -15.9025 O.3        1  LIG1  -0.4900
     19 C13       -18.9334    16.8458   -19.3011 C.3        1  LIG1  -0.0100
     20 C14       -20.3331    16.3558   -19.6780 C.3        1  LIG1  -0.1400
     21 H2        -23.4974    16.9947   -18.4651 H          1  LIG1   0.0600
     22 H3        -22.9987    16.6970   -20.1476 H          1  LIG1   0.0700
     23 H4        -22.7835    15.4283   -18.9178 H          1  LIG1   0.0700
     24 H5        -21.3457    18.1210   -18.9651 H          1  LIG1   0.0900
     25 H6        -21.7286    17.2988   -16.6740 H          1  LIG1   0.1100
     26 H7        -21.1024    15.6944   -17.1262 H          1  LIG1   0.0900
     27 H8        -19.5322    18.3104   -17.2197 H          1  LIG1   0.1300
     28 H9        -19.3601    17.0411   -15.9845 H          1  LIG1   0.1400
     29 H10       -16.6274    16.6945   -18.3964 H          1  LIG1   0.1700
     30 H11       -17.2618    17.9992   -17.3652 H          1  LIG1   0.1600
     31 H12       -16.0564    14.6162   -17.3441 H          1  LIG1   0.4300
     32 H13       -14.4880    15.8700   -14.6572 H          1  LIG1   0.1500
     33 H14       -14.6087    12.3937   -12.1884 H          1  LIG1   0.1400
     34 H15       -16.2259    11.3495   -13.7220 H          1  LIG1   0.1500
     35 H16       -17.4025    12.9980   -16.6627 H          1  LIG1   0.4000
     36 H17       -18.8760    17.9249   -19.4441 H          1  LIG1   0.1300
     37 H18       -18.1945    16.3563   -19.9356 H          1  LIG1   0.1300
     38 H19       -20.3916    15.2767   -19.5355 H          1  LIG1   0.0900
     39 H20       -20.5346    16.5972   -20.7216 H          1  LIG1   0.1200
@<TRIPOS>BOND
     1    1    2 1
     2    1   21 1
     3    1   22 1
     4    1   23 1
     5    2   20 1
     6    2    3 1
     7    2   24 1
     8    3    4 1
     9    3   25 1
    10    3   26 1
    11    4    5 1
    12    4   27 1
    13    4   28 1
    14    5    6 1
    15    5    7 1
    16    5   19 1
    17    7    8 1
    18    7   29 1
    19    7   30 1
    20    8    9 2
    21    8   10 am
    22   10   11 1
    23   10   31 1
    24   11   17 ar
    25   11   12 ar
    26   12   13 ar
    27   12   32 1
    28   13   14 1
    29   13   15 ar
    30   15   16 ar
    31   15   33 1
    32   16   17 ar
    33   16   34 1
    34   17   18 1
    35   18   35 1
    36   19   20 1
    37   19   36 1
    38   19   37 1
    39   20   38 1
    40   20   39 1
##########                 Name:     ZINC000092921610
##########          Protonation:                 none
##########               SMILES:   C[C@@H](C[C@H](O)C1=CC=CC=C1)NC1=CC(N2C=CC=N2)=NC(N)=[NH+]1
##########            Long Name:   NO_LONG_NAME
##########          FlexRecCode: 1
##########               Number:                13193
##########   Ligand Source File: /nfs/db/export/3D/DE/ADRO/DEADRO.xbpi.db2.gz
##########                 Rank:                    1
##########               Setnum:                  222
##########             Matchnum:                    1
##########                Cloud:                    1
##########        Electrostatic:           -38.042084
##########                 Gist:             0.000000
##########        Van der Waals:           -31.329609
##########  Ligand Polar Desolv:            10.629714
########## Ligand Apolar Desolv:            -4.160265
##########      Internal Energy:             0.000000
##########      Receptor Energy:             0.000000
########## Receptor Desolvation:             0.000000
########## Receptor Hydrophobic:             0.000000
##########         Total Energy:           -62.902241
##########        Ligand Charge:             1.000000
##########            Arbitrary:    +999.9990
##########        Ligand Energy:             0.000000

@<TRIPOS>MOLECULE
 ZINC000092921610      none
   45    47     0     0     0



@<TRIPOS>ATOM
      1 C1        -20.4597    17.8467   -17.3617 C.3        1  LIG1  -0.1800
      2 C2        -19.7859    17.4821   -18.6861 C.3        1  LIG1   0.1400
      3 H1        -19.7330    16.3975   -18.7804 H          1  LIG1   0.1100
      4 C3        -20.6001    18.0558   -19.8475 C.3        1  LIG1  -0.1600
      5 C4        -20.2478    17.3087   -21.1354 C.3        1  LIG1   0.1500
      6 H2        -21.0437    17.4499   -21.8666 H          1  LIG1   0.1100
      7 O1        -20.1019    15.9156   -20.8531 O.3        1  LIG1  -0.5600
      8 C5        -18.9544    17.8471   -21.6905 C.ar       1  LIG1  -0.1300
      9 C6        -18.9710    18.9075   -22.5772 C.ar       1  LIG1  -0.1100
     10 C7        -17.7845    19.4014   -23.0864 C.ar       1  LIG1  -0.1100
     11 C8        -16.5815    18.8353   -22.7085 C.ar       1  LIG1  -0.1100
     12 C9        -16.5648    17.7755   -21.8209 C.ar       1  LIG1  -0.1100
     13 C10       -17.7510    17.2843   -21.3085 C.ar       1  LIG1  -0.1100
     14 N1        -18.4322    18.0414   -18.7155 N.pl3      1  LIG1  -0.6600
     15 C11       -17.5065    17.6666   -17.7547 C.ar       1  LIG1   0.5200
     16 C12       -16.5093    18.5525   -17.3512 C.ar       1  LIG1  -0.3100
     17 C13       -15.6037    18.1331   -16.3847 C.ar       1  LIG1   0.5500
     18 N2        -14.5883    18.9868   -15.9495 N.pl3      1  LIG1  -0.3400
     19 C14       -13.6412    18.6960   -15.0194 C.2        1  LIG1   0.0700
     20 C15       -12.8504    19.7850   -14.8862 C.2        1  LIG1  -0.2300
     21 C16       -13.3244    20.7723   -15.7582 C.2        1  LIG1   0.1000
     22 N3        -14.3602    20.2943   -16.3982 N.2        1  LIG1  -0.2800
     23 N4        -15.7166    16.9084   -15.8790 N.ar       1  LIG1  -0.5800
     24 C17       -16.6769    16.0919   -16.2855 C.ar       1  LIG1   0.6900
     25 N5        -16.7621    14.8250   -15.7351 N.pl3      1  LIG1  -0.7900
     26 N6        -17.5611    16.4582   -17.2009 N.ar       1  LIG1  -0.5900
     27 H3        -18.2520    15.8355   -17.4763 H          1  LIG1   0.4400
     28 H4        -20.5126    18.9313   -17.2674 H          1  LIG1   0.0700
     29 H5        -21.4667    17.4304   -17.3398 H          1  LIG1   0.0900
     30 H6        -19.8796    17.4380   -16.5343 H          1  LIG1   0.0700
     31 H7        -21.6635    17.9384   -19.6386 H          1  LIG1   0.1100
     32 H8        -20.3679    19.1141   -19.9661 H          1  LIG1   0.0800
     33 H9        -20.8978    15.5020   -20.4920 H          1  LIG1   0.3700
     34 H10       -19.9110    19.3498   -22.8726 H          1  LIG1   0.1200
     35 H11       -17.7975    20.2293   -23.7798 H          1  LIG1   0.1300
     36 H12       -15.6544    19.2206   -23.1068 H          1  LIG1   0.1300
     37 H13       -15.6247    17.3328   -21.5260 H          1  LIG1   0.1300
     38 H14       -17.7379    16.4564   -20.6152 H          1  LIG1   0.1200
     39 H15       -18.1838    18.6742   -19.4076 H          1  LIG1   0.4200
     40 H16       -16.4419    19.5414   -17.7799 H          1  LIG1   0.1900
     41 H17       -13.5390    17.7641   -14.4832 H          1  LIG1   0.1900
     42 H18       -12.0025    19.8770   -14.2236 H          1  LIG1   0.1700
     43 H19       -12.9039    21.7588   -15.8842 H          1  LIG1   0.2100
     44 H20       -16.1234    14.5452   -15.0608 H          1  LIG1   0.4500
     45 H21       -17.4604    14.2168   -16.0237 H          1  LIG1   0.4300
@<TRIPOS>BOND
     1    1    2 1
     2    1   28 1
     3    1   29 1
     4    1   30 1
     5    2    3 1
     6    2    4 1
     7    2   14 1
     8    4    5 1
     9    4   31 1
    10    4   32 1
    11    5    6 1
    12    5    7 1
    13    5    8 1
    14    7   33 1
    15    8   13 ar
    16    8    9 ar
    17    9   10 ar
    18    9   34 1
    19   10   11 ar
    20   10   35 1
    21   11   12 ar
    22   11   36 1
    23   12   13 ar
    24   12   37 1
    25   13   38 1
    26   14   15 1
    27   14   39 1
    28   15   26 ar
    29   15   16 ar
    30   16   17 ar
    31   16   40 1
    32   17   18 1
    33   17   23 ar
    34   18   22 1
    35   18   19 1
    36   19   20 2
    37   19   41 1
    38   20   21 1
    39   20   42 1
    40   21   22 2
    41   21   43 1
    42   23   24 ar
    43   24   25 1
    44   24   26 ar
    45   25   44 1
    46   25   45 1
    47   26   27 1
##########                 Name:     ZINC000411550046
##########          Protonation:                 none
##########               SMILES:   C[NH+](C)C[C@H](Cc1ccccc1)NC(=O)c1cc2cccnc2[nH]1
##########            Long Name:   NO_LONG_NAME
##########          FlexRecCode: 1
##########               Number:                 2716
##########   Ligand Source File: /nfs/db/export/3D/DE/ADRO/DEADRO.xbfm.db2.gz
##########                 Rank:                    1
##########               Setnum:                   14
##########             Matchnum:                    1
##########                Cloud:                    1
##########        Electrostatic:           -46.781761
##########                 Gist:             0.000000
##########        Van der Waals:           -32.864632
##########  Ligand Polar Desolv:            19.059378
########## Ligand Apolar Desolv:            -5.124980
##########      Internal Energy:             0.000000
##########      Receptor Energy:             0.000000
########## Receptor Desolvation:             0.000000
########## Receptor Hydrophobic:             0.000000
##########         Total Energy:           -65.711998
##########        Ligand Charge:             1.000000
##########            Arbitrary:    +999.9990
##########        Ligand Energy:             0.000000

@<TRIPOS>MOLECULE
 ZINC000411550046      none
   47    49     0     0     0



@<TRIPOS>ATOM
      1 C1        -20.5382    17.6862   -17.7751 C.3        1  LIG1  -0.0600
      2 N1        -20.0789    16.4104   -18.3402 N.4        1  LIG1  -0.3900
      3 H1        -19.5529    15.9039   -17.6436 H          1  LIG1   0.4200
      4 C2        -21.2403    15.6114   -18.7534 C.3        1  LIG1  -0.0500
      5 C3        -19.2237    16.6706   -19.5058 C.3        1  LIG1  -0.0200
      6 C4        -18.0140    17.5027   -19.0755 C.3        1  LIG1   0.1200
      7 H2        -18.3548    18.4493   -18.6563 H          1  LIG1   0.1300
      8 C5        -17.1234    17.7737   -20.2896 C.3        1  LIG1  -0.0800
      9 C6        -17.7014    18.9100   -21.0931 C.ar       1  LIG1  -0.1000
     10 C7        -18.6109    18.6511   -22.1015 C.ar       1  LIG1  -0.1100
     11 C8        -19.1411    19.6935   -22.8385 C.ar       1  LIG1  -0.1100
     12 C9        -18.7622    20.9949   -22.5667 C.ar       1  LIG1  -0.1100
     13 C10       -17.8536    21.2539   -21.5577 C.ar       1  LIG1  -0.1200
     14 C11       -17.3266    20.2118   -20.8179 C.ar       1  LIG1  -0.1100
     15 N2        -17.2506    16.7675   -18.0642 N.am       1  LIG1  -0.7500
     16 C12       -16.5577    17.4387   -17.1230 C.2        1  LIG1   0.6000
     17 O1        -16.5663    18.6552   -17.1132 O.2        1  LIG1  -0.5000
     18 C13       -15.7915    16.7008   -16.1080 C.2        1  LIG1  -0.0100
     19 C14       -16.1022    15.4680   -15.6285 C.2        1  LIG1  -0.0700
     20 C15       -15.1179    15.1199   -14.6736 C.ar       1  LIG1  -0.1700
     21 C16       -14.9112    13.9963   -13.8621 C.ar       1  LIG1  -0.0100
     22 C17       -13.8238    13.9911   -13.0276 C.ar       1  LIG1  -0.2000
     23 C18       -12.9685    15.0828   -13.0085 C.ar       1  LIG1   0.1700
     24 N3        -13.1737    16.1325   -13.7753 N.ar       1  LIG1  -0.5000
     25 C19       -14.2086    16.1954   -14.6038 C.ar       1  LIG1   0.3100
     26 N4        -14.6369    17.1480   -15.4935 N.pl3      1  LIG1  -0.5700
     27 H3        -21.1062    18.2333   -18.5274 H          1  LIG1   0.1300
     28 H4        -21.1726    17.4930   -16.9101 H          1  LIG1   0.1300
     29 H5        -19.6762    18.2789   -17.4683 H          1  LIG1   0.1300
     30 H6        -20.8994    14.6648   -19.1727 H          1  LIG1   0.1300
     31 H7        -21.8748    15.4182   -17.8885 H          1  LIG1   0.1200
     32 H8        -21.8084    16.1584   -19.5058 H          1  LIG1   0.1300
     33 H9        -18.8830    15.7239   -19.9252 H          1  LIG1   0.1400
     34 H10       -19.7918    17.2176   -20.2583 H          1  LIG1   0.1500
     35 H11       -16.1213    18.0394   -19.9531 H          1  LIG1   0.0900
     36 H12       -17.0729    16.8788   -20.9101 H          1  LIG1   0.1000
     37 H13       -18.9068    17.6343   -22.3138 H          1  LIG1   0.1200
     38 H14       -19.8510    19.4911   -23.6268 H          1  LIG1   0.1300
     39 H15       -19.1760    21.8092   -23.1430 H          1  LIG1   0.1300
     40 H16       -17.5573    22.2705   -21.3457 H          1  LIG1   0.1200
     41 H17       -16.6166    20.4142   -20.0296 H          1  LIG1   0.1100
     42 H18       -17.2436    15.7975   -18.0719 H          1  LIG1   0.4000
     43 H19       -16.9475    14.8635   -15.9227 H          1  LIG1   0.1600
     44 H20       -15.5904    13.1573   -13.8930 H          1  LIG1   0.1400
     45 H21       -13.6342    13.1416   -12.3881 H          1  LIG1   0.1500
     46 H22       -12.1138    15.0713   -12.3483 H          1  LIG1   0.1700
     47 H23       -14.2011    17.9979   -15.6626 H          1  LIG1   0.4200
@<TRIPOS>BOND
     1    1    2 1
     2    1   27 1
     3    1   28 1
     4    1   29 1
     5    2    3 1
     6    2    4 1
     7    2    5 1
     8    4   30 1
     9    4   31 1
    10    4   32 1
    11    5    6 1
    12    5   33 1
    13    5   34 1
    14    6    7 1
    15    6    8 1
    16    6   15 1
    17    8    9 1
    18    8   35 1
    19    8   36 1
    20    9   14 ar
    21    9   10 ar
    22   10   11 ar
    23   10   37 1
    24   11   12 ar
    25   11   38 1
    26   12   13 ar
    27   12   39 1
    28   13   14 ar
    29   13   40 1
    30   14   41 1
    31   15   16 am
    32   15   42 1
    33   16   17 2
    34   16   18 1
    35   18   26 1
    36   18   19 2
    37   19   20 1
    38   19   43 1
    39   20   25 ar
    40   20   21 ar
    41   21   22 ar
    42   21   44 1
    43   22   23 ar
    44   22   45 1
    45   23   24 ar
    46   23   46 1
    47   24   25 ar
    48   25   26 1
    49   26   47 1
##########                 Name:     ZINC000357449470
##########          Protonation:                 none
##########               SMILES:   CC1=CC=C(NC(=O)[C@H]2CC[N@@H+]2CC2=CC=CC=C2)C=C1
##########            Long Name:   NO_LONG_NAME
##########          FlexRecCode: 1
##########               Number:                 4436
##########   Ligand Source File: /nfs/db/export/3D/CG/ADMO/CGADMO.xagq.db2.gz
##########                 Rank:                    1
##########               Setnum:                   30
##########             Matchnum:                    1
##########                Cloud:                    1
##########        Electrostatic:           -37.423714
##########                 Gist:             0.000000
##########        Van der Waals:           -32.079819
##########  Ligand Polar Desolv:            12.192922
########## Ligand Apolar Desolv:            -6.192133
##########      Internal Energy:             0.000000
##########      Receptor Energy:             0.000000
########## Receptor Desolvation:             0.000000
########## Receptor Hydrophobic:             0.000000
##########         Total Energy:           -63.502743
##########        Ligand Charge:             1.000000
##########            Arbitrary:    +999.9990
##########        Ligand Energy:             0.000000

@<TRIPOS>MOLECULE
 ZINC000357449470      none
   42    44     0     0     0



@<TRIPOS>ATOM
      1 C1        -14.8797    11.3699   -12.3299 C.3        1  LIG1  -0.1200
      2 C2        -15.3107    12.3077   -13.4280 C.ar       1  LIG1  -0.0800
      3 C3        -14.8094    13.5957   -13.4714 C.ar       1  LIG1  -0.1000
      4 C4        -15.2024    14.4577   -14.4764 C.ar       1  LIG1  -0.1100
      5 C5        -16.1015    14.0296   -15.4443 C.ar       1  LIG1   0.1100
      6 N1        -16.5012    14.9002   -16.4641 N.am       1  LIG1  -0.6400
      7 C6        -16.5487    16.2278   -16.2367 C.2        1  LIG1   0.5100
      8 O1        -16.2451    16.6679   -15.1480 O.2        1  LIG1  -0.5100
      9 C7        -16.9793    17.1655   -17.3350 C.3        1  LIG1   0.0100
     10 H1        -16.9749    18.2100   -17.0234 H          1  LIG1   0.1900
     11 C8        -16.2551    16.9215   -18.6663 C.3        1  LIG1  -0.1400
     12 C9        -17.6358    17.2103   -19.2722 C.3        1  LIG1   0.0000
     13 N2        -18.2305    16.7562   -18.0000 N.4        1  LIG1  -0.3900
     14 H2        -18.3952    15.7613   -17.9666 H          1  LIG1   0.4400
     15 C10       -19.3995    17.5443   -17.5876 C.3        1  LIG1   0.0500
     16 C11       -20.6213    17.0514   -18.3192 C.ar       1  LIG1  -0.1600
     17 C12       -20.9643    17.6010   -19.5405 C.ar       1  LIG1  -0.0900
     18 C13       -22.0850    17.1488   -20.2116 C.ar       1  LIG1  -0.1200
     19 C14       -22.8624    16.1467   -19.6618 C.ar       1  LIG1  -0.0800
     20 C15       -22.5188    15.5963   -18.4411 C.ar       1  LIG1  -0.1100
     21 C16       -21.3958    16.0456   -17.7720 C.ar       1  LIG1  -0.0900
     22 C17       -16.6027    12.7353   -15.3981 C.ar       1  LIG1  -0.1200
     23 C18       -16.2021    11.8767   -14.3932 C.ar       1  LIG1  -0.1000
     24 H3        -14.1805    11.8816   -11.6687 H          1  LIG1   0.0800
     25 H4        -15.7528    11.0522   -11.7599 H          1  LIG1   0.0700
     26 H5        -14.3940    10.4974   -12.7670 H          1  LIG1   0.0700
     27 H6        -14.1101    13.9281   -12.7184 H          1  LIG1   0.1300
     28 H7        -14.8110    15.4638   -14.5094 H          1  LIG1   0.1400
     29 H8        -16.7442    14.5483   -17.3348 H          1  LIG1   0.4200
     30 H9        -15.4978    17.6680   -18.9058 H          1  LIG1   0.1400
     31 H10       -15.9118    15.8966   -18.8064 H          1  LIG1   0.1300
     32 H11       -17.8073    18.2667   -19.4780 H          1  LIG1   0.1600
     33 H12       -17.8805    16.5698   -20.1197 H          1  LIG1   0.1400
     34 H13       -19.5506    17.4355   -16.5136 H          1  LIG1   0.1300
     35 H14       -19.2322    18.5946   -17.8263 H          1  LIG1   0.1400
     36 H15       -20.3570    18.3840   -19.9699 H          1  LIG1   0.1300
     37 H16       -22.3534    17.5787   -21.1654 H          1  LIG1   0.1400
     38 H17       -23.7384    15.7938   -20.1858 H          1  LIG1   0.1400
     39 H18       -23.1263    14.8136   -18.0114 H          1  LIG1   0.1400
     40 H19       -21.1273    15.6157   -16.8183 H          1  LIG1   0.1300
     41 H20       -17.3022    12.3993   -16.1493 H          1  LIG1   0.1300
     42 H21       -16.5915    10.8700   -14.3567 H          1  LIG1   0.1300
@<TRIPOS>BOND
     1    1    2 1
     2    1   24 1
     3    1   25 1
     4    1   26 1
     5    2   23 ar
     6    2    3 ar
     7    3    4 ar
     8    3   27 1
     9    4    5 ar
    10    4   28 1
    11    5    6 1
    12    5   22 ar
    13    6    7 am
    14    6   29 1
    15    7    8 2
    16    7    9 1
    17    9   10 1
    18    9   13 1
    19    9   11 1
    20   11   12 1
    21   11   30 1
    22   11   31 1
    23   12   13 1
    24   12   32 1
    25   12   33 1
    26   13   14 1
    27   13   15 1
    28   15   16 1
    29   15   34 1
    30   15   35 1
    31   16   21 ar
    32   16   17 ar
    33   17   18 ar
    34   17   36 1
    35   18   19 ar
    36   18   37 1
    37   19   20 ar
    38   19   38 1
    39   20   21 ar
    40   20   39 1
    41   21   40 1
    42   22   23 ar
    43   22   41 1
    44   23   42 1
##########                 Name:     ZINC000568503236
##########          Protonation:                 none
##########               SMILES:   O[C@@H](C[NH2+][C@H]1C[C@@H](C(F)(F)F)C1)Cc1ccc2ccccc2c1
##########            Long Name:   NO_LONG_NAME
##########          FlexRecCode: 1
##########               Number:                 7343
##########   Ligand Source File: /nfs/db/export/3D/DH/ADRO/DHADRO.xla.db2.gz
##########                 Rank:                    1
##########               Setnum:                  313
##########             Matchnum:                    1
##########                Cloud:                    1
##########        Electrostatic:           -39.547108
##########                 Gist:             0.000000
##########        Van der Waals:           -32.304115
##########  Ligand Polar Desolv:            15.029701
########## Ligand Apolar Desolv:            -5.652370
##########      Internal Energy:             0.000000
##########      Receptor Energy:             0.000000
########## Receptor Desolvation:             0.000000
########## Receptor Hydrophobic:             0.000000
##########         Total Energy:           -62.473896
##########        Ligand Charge:             1.000000
##########            Arbitrary:    +999.9990
##########        Ligand Energy:             0.000000

@<TRIPOS>MOLECULE
 ZINC000568503236      none
   44    46     0     0     0



@<TRIPOS>ATOM
      1 O1        -16.1793    18.3005   -16.0495 O.3        1  LIG1  -0.5500
      2 C1        -16.8238    17.1798   -16.6585 C.3        1  LIG1   0.0900
      3 H1        -17.4542    16.6795   -15.9234 H          1  LIG1   0.1200
      4 C2        -17.6862    17.6604   -17.8273 C.3        1  LIG1  -0.0500
      5 N1        -18.6935    16.6395   -18.1449 N.4        1  LIG1  -0.5000
      6 H2        -18.2318    15.7791   -18.3991 H          1  LIG1   0.4300
      7 H3        -19.2783    16.4816   -17.3379 H          1  LIG1   0.4400
      8 C3        -19.5215    17.1010   -19.2670 C.3        1  LIG1   0.0000
      9 C4        -20.6512    16.1268   -19.6406 C.3        1  LIG1  -0.1400
     10 C5        -21.5435    17.3627   -19.8435 C.3        1  LIG1  -0.1600
     11 C6        -22.9721    17.1785   -19.3280 C.3        1  LIG1   0.4600
     12 F1        -22.9414    16.9066   -17.9560 F          1  LIG1  -0.1800
     13 F2        -23.7044    18.3488   -19.5551 F          1  LIG1  -0.1700
     14 F3        -23.5771    16.1119   -20.0015 F          1  LIG1  -0.1700
     15 C7        -20.6209    18.0937   -18.8539 C.3        1  LIG1  -0.1400
     16 C8        -15.7662    16.2014   -17.1735 C.3        1  LIG1  -0.1100
     17 C9        -15.2534    15.3671   -16.0279 C.ar       1  LIG1  -0.0900
     18 C10       -14.1550    15.8104   -15.2942 C.ar       1  LIG1  -0.1100
     19 C11       -13.6667    15.0811   -14.2536 C.ar       1  LIG1  -0.1000
     20 C12       -14.2772    13.8628   -13.9116 C.ar       1  LIG1  -0.0500
     21 C13       -13.8019    13.0826   -12.8435 C.ar       1  LIG1  -0.1100
     22 C14       -14.4189    11.9079   -12.5411 C.ar       1  LIG1  -0.1100
     23 C15       -15.5175    11.4644   -13.2753 C.ar       1  LIG1  -0.1100
     24 C16       -16.0054    12.1932   -14.3159 C.ar       1  LIG1  -0.1100
     25 C17       -15.3945    13.4117   -14.6581 C.ar       1  LIG1  -0.0500
     26 C18       -15.8735    14.1946   -15.7221 C.ar       1  LIG1  -0.1000
     27 H4        -15.6009    18.7940   -16.6469 H          1  LIG1   0.3900
     28 H5        -18.1848    18.5899   -17.5527 H          1  LIG1   0.1400
     29 H6        -17.0543    17.8309   -18.6990 H          1  LIG1   0.1400
     30 H7        -18.9307    17.4342   -20.1202 H          1  LIG1   0.1700
     31 H8        -20.4618    15.5696   -20.5581 H          1  LIG1   0.1200
     32 H9        -20.9690    15.4896   -18.8152 H          1  LIG1   0.1200
     33 H10       -21.5073    17.7659   -20.8555 H          1  LIG1   0.1600
     34 H11       -20.9304    17.9944   -17.8134 H          1  LIG1   0.1200
     35 H12       -20.4070    19.1246   -19.1363 H          1  LIG1   0.1200
     36 H13       -16.2097    15.5503   -17.9269 H          1  LIG1   0.0900
     37 H14       -14.9402    16.7585   -17.6155 H          1  LIG1   0.0900
     38 H15       -13.6836    16.7465   -15.5552 H          1  LIG1   0.1200
     39 H16       -12.8143    15.4371   -13.6939 H          1  LIG1   0.1300
     40 H17       -12.9514    13.4134   -12.2661 H          1  LIG1   0.1300
     41 H18       -14.0515    11.3100   -11.7202 H          1  LIG1   0.1300
     42 H19       -15.9886    10.5282   -13.0146 H          1  LIG1   0.1300
     43 H20       -16.8573    11.8369   -14.8761 H          1  LIG1   0.1300
     44 H21       -16.7269    13.8660   -16.2965 H          1  LIG1   0.1200
@<TRIPOS>BOND
     1    1    2 1
     2    1   27 1
     3    2    3 1
     4    2    4 1
     5    2   16 1
     6    4    5 1
     7    4   28 1
     8    4   29 1
     9    5    6 1
    10    5    7 1
    11    5    8 1
    12    8   15 1
    13    8    9 1
    14    8   30 1
    15    9   10 1
    16    9   31 1
    17    9   32 1
    18   10   11 1
    19   10   15 1
    20   10   33 1
    21   11   12 1
    22   11   13 1
    23   11   14 1
    24   15   34 1
    25   15   35 1
    26   16   17 1
    27   16   36 1
    28   16   37 1
    29   17   26 ar
    30   17   18 ar
    31   18   19 ar
    32   18   38 1
    33   19   20 ar
    34   19   39 1
    35   20   25 ar
    36   20   21 ar
    37   21   22 ar
    38   21   40 1
    39   22   23 ar
    40   22   41 1
    41   23   24 ar
    42   23   42 1
    43   24   25 ar
    44   24   43 1
    45   25   26 ar
    46   26   44 1
##########                 Name:     ZINC000617923659
##########          Protonation:                 none
##########               SMILES:   CCN(C(=O)C1=CNC(C2=CC=CC=C2)=N1)[C@H]1CC[N@H+](CC)C1
##########            Long Name:   NO_LONG_NAME
##########          FlexRecCode: 1
##########               Number:                 2172
##########   Ligand Source File: /nfs/db/export/3D/DF/ADRO/DFADRO.xbdp.db2.gz
##########                 Rank:                    1
##########               Setnum:                   77
##########             Matchnum:                    1
##########                Cloud:                    1
##########        Electrostatic:           -38.798710
##########                 Gist:             0.000000
##########        Van der Waals:           -29.662279
##########  Ligand Polar Desolv:            10.086323
########## Ligand Apolar Desolv:            -4.407901
##########      Internal Energy:             0.000000
##########      Receptor Energy:             0.000000
########## Receptor Desolvation:             0.000000
########## Receptor Hydrophobic:             0.000000
##########         Total Energy:           -62.782570
##########        Ligand Charge:             1.000000
##########            Arbitrary:    +999.9990
##########        Ligand Energy:             0.000000

@<TRIPOS>MOLECULE
 ZINC000617923659      none
   48    50     0     0     0



@<TRIPOS>ATOM
      1 C1        -23.2820    16.8210   -19.2027 C.3        1  LIG1  -0.1600
      2 C2        -22.0724    16.2858   -19.9717 C.3        1  LIG1   0.0900
      3 N1        -21.1600    17.3905   -20.2772 N.am       1  LIG1  -0.5900
      4 C3        -21.2999    18.0820   -21.4255 C.2        1  LIG1   0.6200
      5 O1        -22.3993    18.2058   -21.9307 O.2        1  LIG1  -0.5500
      6 C4        -20.1209    18.6882   -22.0690 C.2        1  LIG1  -0.0700
      7 C5        -19.9557    18.9002   -23.4078 C.2        1  LIG1   0.0600
      8 N2        -18.7405    19.4742   -23.5714 N.pl3      1  LIG1  -0.5500
      9 C6        -18.1779    19.6059   -22.3327 C.2        1  LIG1   0.2700
     10 C7        -16.8474    20.1868   -22.0470 C.ar       1  LIG1  -0.0300
     11 C8        -16.1095    19.7414   -20.9500 C.ar       1  LIG1  -0.1100
     12 C9        -14.8692    20.2866   -20.6893 C.ar       1  LIG1  -0.1100
     13 C10       -14.3570    21.2732   -21.5130 C.ar       1  LIG1  -0.1000
     14 C11       -15.0841    21.7195   -22.6021 C.ar       1  LIG1  -0.1200
     15 C12       -16.3231    21.1781   -22.8768 C.ar       1  LIG1  -0.0700
     16 N3        -19.0151    19.1375   -21.4393 N.2        1  LIG1  -0.4400
     17 C13       -20.0957    17.7436   -19.3344 C.3        1  LIG1   0.1400
     18 H1        -19.8674    18.8077   -19.3940 H          1  LIG1   0.1300
     19 C14       -20.4913    17.3477   -17.8874 C.3        1  LIG1  -0.1600
     20 C15       -19.1041    17.1534   -17.2259 C.3        1  LIG1   0.0000
     21 N4        -18.2656    16.5430   -18.2795 N.4        1  LIG1  -0.3900
     22 H2        -18.2594    15.5400   -18.1702 H          1  LIG1   0.4300
     23 C16       -16.8942    17.0605   -18.1816 C.3        1  LIG1  -0.0100
     24 C17       -16.3154    16.7144   -16.8083 C.3        1  LIG1  -0.1900
     25 C18       -18.8315    16.8987   -19.5971 C.3        1  LIG1  -0.0200
     26 H3        -23.9608    15.9991   -18.9755 H          1  LIG1   0.0700
     27 H4        -22.9467    17.2828   -18.2740 H          1  LIG1   0.0600
     28 H5        -23.8000    17.5626   -19.8109 H          1  LIG1   0.0500
     29 H6        -21.5544    15.5442   -19.3636 H          1  LIG1   0.1300
     30 H7        -22.4076    15.8240   -20.9004 H          1  LIG1   0.0800
     31 H8        -20.6610    18.6561   -24.1885 H          1  LIG1   0.2000
     32 H9        -18.3417    19.7424   -24.4140 H          1  LIG1   0.4300
     33 H10       -16.5084    18.9716   -20.3061 H          1  LIG1   0.1200
     34 H11       -14.2971    19.9429   -19.8403 H          1  LIG1   0.1300
     35 H12       -13.3856    21.6968   -21.3047 H          1  LIG1   0.1300
     36 H13       -14.6790    22.4900   -23.2412 H          1  LIG1   0.1300
     37 H14       -16.8898    21.5274   -23.7274 H          1  LIG1   0.1400
     38 H15       -21.0468    18.1497   -17.4012 H          1  LIG1   0.1200
     39 H16       -21.0616    16.4189   -17.8788 H          1  LIG1   0.1200
     40 H17       -18.6908    18.1149   -16.9215 H          1  LIG1   0.1300
     41 H18       -19.1828    16.4846   -16.3687 H          1  LIG1   0.1400
     42 H19       -16.2789    16.6087   -18.9596 H          1  LIG1   0.1300
     43 H20       -16.9044    18.1430   -18.3093 H          1  LIG1   0.1300
     44 H21       -15.2979    17.0982   -16.7354 H          1  LIG1   0.0800
     45 H22       -16.9309    17.1661   -16.0302 H          1  LIG1   0.0800
     46 H23       -16.3053    15.6318   -16.6806 H          1  LIG1   0.1000
     47 H24       -19.0998    15.9935   -20.1420 H          1  LIG1   0.1400
     48 H25       -18.1054    17.4767   -20.1687 H          1  LIG1   0.1400
@<TRIPOS>BOND
     1    1    2 1
     2    1   26 1
     3    1   27 1
     4    1   28 1
     5    2    3 1
     6    2   29 1
     7    2   30 1
     8    3    4 am
     9    3   17 1
    10    4    5 2
    11    4    6 1
    12    6   16 1
    13    6    7 2
    14    7    8 1
    15    7   31 1
    16    8    9 1
    17    8   32 1
    18    9   10 1
    19    9   16 2
    20   10   15 ar
    21   10   11 ar
    22   11   12 ar
    23   11   33 1
    24   12   13 ar
    25   12   34 1
    26   13   14 ar
    27   13   35 1
    28   14   15 ar
    29   14   36 1
    30   15   37 1
    31   17   18 1
    32   17   25 1
    33   17   19 1
    34   19   20 1
    35   19   38 1
    36   19   39 1
    37   20   21 1
    38   20   40 1
    39   20   41 1
    40   21   22 1
    41   21   23 1
    42   21   25 1
    43   23   24 1
    44   23   42 1
    45   23   43 1
    46   24   44 1
    47   24   45 1
    48   24   46 1
    49   25   47 1
    50   25   48 1
##########                 Name:     ZINC000089644772
##########          Protonation:                 none
##########               SMILES:   N#CC1=CC(Cl)=CC=C1NC[C@H]1C[C@H](O)C[N@@H+]1CC1=CC=CC=C1
##########            Long Name:   NO_LONG_NAME
##########          FlexRecCode: 1
##########               Number:                 8674
##########   Ligand Source File: /nfs/db/export/3D/EG/ADMO/EGADMO.xako.db2.gz
##########                 Rank:                    1
##########               Setnum:                  107
##########             Matchnum:                    1
##########                Cloud:                    1
##########        Electrostatic:           -39.687492
##########                 Gist:             0.000000
##########        Van der Waals:           -34.526398
##########  Ligand Polar Desolv:            14.243170
########## Ligand Apolar Desolv:            -5.534100
##########      Internal Energy:             0.000000
##########      Receptor Energy:             0.000000
########## Receptor Desolvation:             0.000000
########## Receptor Hydrophobic:             0.000000
##########         Total Energy:           -65.504822
##########        Ligand Charge:             1.000000
##########            Arbitrary:    +999.9990
##########        Ligand Energy:             0.000000

@<TRIPOS>MOLECULE
 ZINC000089644772      none
   45    47     0     0     0



@<TRIPOS>ATOM
      1 N1        -13.1967    16.4657   -12.7135 N.1        1  LIG1  -0.4000
      2 C1        -13.6893    15.4779   -12.9819 C.1        1  LIG1   0.2500
      3 C2        -14.3103    14.2327   -13.3202 C.ar       1  LIG1  -0.0900
      4 C3        -14.0526    13.0894   -12.5599 C.ar       1  LIG1  -0.0100
      5 C4        -14.6544    11.8933   -12.8909 C.ar       1  LIG1  -0.0800
      6 Cl1       -14.3334    10.4738   -11.9445 Cl         1  LIG1  -0.0500
      7 C5        -15.5146    11.8193   -13.9753 C.ar       1  LIG1  -0.0300
      8 C6        -15.7787    12.9410   -14.7357 C.ar       1  LIG1  -0.1800
      9 C7        -15.1863    14.1547   -14.4144 C.ar       1  LIG1   0.2500
     10 N2        -15.4511    15.2858   -15.1795 N.pl3      1  LIG1  -0.7600
     11 C8        -16.3658    15.2006   -16.3207 C.3        1  LIG1   0.1000
     12 C9        -16.4814    16.5738   -16.9853 C.3        1  LIG1   0.0100
     13 H1        -16.5166    17.3524   -16.2234 H          1  LIG1   0.1500
     14 C10       -15.2759    16.8077   -17.9198 C.3        1  LIG1  -0.1700
     15 C11       -15.8328    16.4152   -19.3136 C.3        1  LIG1   0.0900
     16 H2        -15.7916    15.3359   -19.4606 H          1  LIG1   0.1000
     17 O1        -15.1326    17.0980   -20.3555 O.3        1  LIG1  -0.5400
     18 C12       -17.2986    16.9063   -19.2145 C.3        1  LIG1   0.0000
     19 N3        -17.6989    16.6285   -17.8152 N.4        1  LIG1  -0.3900
     20 H3        -18.1809    15.7432   -17.7693 H          1  LIG1   0.4300
     21 C13       -18.5812    17.6988   -17.3316 C.3        1  LIG1   0.0500
     22 C14       -19.9845    17.4535   -17.8233 C.ar       1  LIG1  -0.1700
     23 C15       -20.3925    17.9743   -19.0371 C.ar       1  LIG1  -0.0900
     24 C16       -21.6799    17.7492   -19.4880 C.ar       1  LIG1  -0.1100
     25 C17       -22.5588    17.0030   -18.7253 C.ar       1  LIG1  -0.0800
     26 C18       -22.1504    16.4817   -17.5120 C.ar       1  LIG1  -0.1100
     27 C19       -20.8619    16.7031   -17.0631 C.ar       1  LIG1  -0.0900
     28 H4        -13.3828    13.1420   -11.7143 H          1  LIG1   0.1500
     29 H5        -15.9810    10.8783   -14.2272 H          1  LIG1   0.1500
     30 H6        -16.4500    12.8750   -15.5790 H          1  LIG1   0.1400
     31 H7        -15.0301    16.1310   -14.9575 H          1  LIG1   0.4000
     32 H8        -15.9812    14.4792   -17.0415 H          1  LIG1   0.1200
     33 H9        -17.3488    14.8802   -15.9752 H          1  LIG1   0.1000
     34 H10       -14.9754    17.8554   -17.9061 H          1  LIG1   0.1200
     35 H11       -14.4422    16.1629   -17.6422 H          1  LIG1   0.1200
     36 H12       -15.4453    16.8846   -21.2452 H          1  LIG1   0.4100
     37 H13       -17.3552    17.9754   -19.4188 H          1  LIG1   0.1400
     38 H14       -17.9319    16.3526   -19.9078 H          1  LIG1   0.1400
     39 H15       -18.5749    17.7104   -16.2418 H          1  LIG1   0.1300
     40 H16       -18.2274    18.6590   -17.7072 H          1  LIG1   0.1400
     41 H17       -19.7059    18.5571   -19.6329 H          1  LIG1   0.1300
     42 H18       -21.9987    18.1566   -20.4360 H          1  LIG1   0.1400
     43 H19       -23.5647    16.8279   -19.0774 H          1  LIG1   0.1400
     44 H20       -22.8373    15.8990   -16.9160 H          1  LIG1   0.1400
     45 H21       -20.5429    16.2956   -16.1151 H          1  LIG1   0.1300
@<TRIPOS>BOND
     1    1    2 3
     2    2    3 1
     3    3    9 ar
     4    3    4 ar
     5    4    5 ar
     6    4   28 1
     7    5    6 1
     8    5    7 ar
     9    7    8 ar
    10    7   29 1
    11    8    9 ar
    12    8   30 1
    13    9   10 1
    14   10   11 1
    15   10   31 1
    16   11   12 1
    17   11   32 1
    18   11   33 1
    19   12   13 1
    20   12   19 1
    21   12   14 1
    22   14   15 1
    23   14   34 1
    24   14   35 1
    25   15   16 1
    26   15   17 1
    27   15   18 1
    28   17   36 1
    29   18   19 1
    30   18   37 1
    31   18   38 1
    32   19   20 1
    33   19   21 1
    34   21   22 1
    35   21   39 1
    36   21   40 1
    37   22   27 ar
    38   22   23 ar
    39   23   24 ar
    40   23   41 1
    41   24   25 ar
    42   24   42 1
    43   25   26 ar
    44   25   43 1
    45   26   27 ar
    46   26   44 1
    47   27   45 1
##########                 Name:     ZINC000429763704
##########          Protonation:                 none
##########               SMILES:   C[C@@H]1CC[C@@H]([N@H+](CCO)CC2=NC(C3=CC=C(Cl)C=C3)=NO2)C1
##########            Long Name:   NO_LONG_NAME
##########          FlexRecCode: 1
##########               Number:                11068
##########   Ligand Source File: /nfs/db/export/3D/EG/ADRO/EGADRO.xblh.db2.gz
##########                 Rank:                    1
##########               Setnum:                    9
##########             Matchnum:                    1
##########                Cloud:                    1
##########        Electrostatic:           -46.184368
##########                 Gist:             0.000000
##########        Van der Waals:           -26.845642
##########  Ligand Polar Desolv:            13.327539
########## Ligand Apolar Desolv:            -2.844038
##########      Internal Energy:             0.000000
##########      Receptor Energy:             0.000000
########## Receptor Desolvation:             0.000000
########## Receptor Hydrophobic:             0.000000
##########         Total Energy:           -62.546513
##########        Ligand Charge:             1.000000
##########            Arbitrary:    +999.9990
##########        Ligand Energy:             0.000000

@<TRIPOS>MOLECULE
 ZINC000429763704      none
   46    48     0     0     0



@<TRIPOS>ATOM
      1 C1        -23.2546    16.4775   -19.8617 C.3        1  LIG1  -0.1500
      2 C2        -22.1623    16.1574   -18.8394 C.3        1  LIG1  -0.0900
      3 H1        -22.4372    15.2734   -18.2641 H          1  LIG1   0.0900
      4 C3        -21.9541    17.3590   -17.8946 C.3        1  LIG1  -0.1200
      5 C4        -20.4263    17.3827   -17.6411 C.3        1  LIG1  -0.1300
      6 C5        -19.8445    16.9930   -19.0227 C.3        1  LIG1   0.0100
      7 H2        -19.8251    17.8577   -19.6861 H          1  LIG1   0.1700
      8 N1        -18.4955    16.4313   -18.8726 N.4        1  LIG1  -0.3800
      9 H3        -18.5368    15.6083   -18.2901 H          1  LIG1   0.4300
     10 C6        -17.6163    17.4291   -18.2486 C.3        1  LIG1  -0.0200
     11 C7        -16.3989    16.7282   -17.6424 C.3        1  LIG1   0.0500
     12 O1        -16.8318    15.7907   -16.6546 O.3        1  LIG1  -0.5700
     13 C8        -17.9656    16.0700   -20.1941 C.3        1  LIG1   0.1000
     14 C9        -17.9040    17.2991   -21.0638 C.2        1  LIG1   0.1000
     15 N2        -16.8913    18.1220   -21.1770 N.2        1  LIG1  -0.4200
     16 C10       -17.2876    19.0663   -22.0601 C.2        1  LIG1   0.2400
     17 C11       -16.4894    20.2276   -22.5256 C.ar       1  LIG1  -0.0500
     18 C12       -17.0330    21.1280   -23.4397 C.ar       1  LIG1  -0.0600
     19 C13       -16.2871    22.2065   -23.8691 C.ar       1  LIG1  -0.1100
     20 C14       -15.0005    22.3946   -23.3938 C.ar       1  LIG1  -0.0100
     21 Cl1       -14.0668    23.7529   -23.9383 Cl         1  LIG1  -0.0400
     22 C15       -14.4562    21.5028   -22.4852 C.ar       1  LIG1  -0.1100
     23 C16       -15.1962    20.4243   -22.0457 C.ar       1  LIG1  -0.0600
     24 N3        -18.5057    18.7642   -22.4275 N.2        1  LIG1  -0.3400
     25 O2        -18.8703    17.7511   -21.8691 O.3        1  LIG1   0.1100
     26 C17       -20.8212    15.9235   -19.5567 C.3        1  LIG1  -0.1400
     27 H4        -22.9708    17.3622   -20.4316 H          1  LIG1   0.0600
     28 H5        -23.3767    15.6325   -20.5395 H          1  LIG1   0.0700
     29 H6        -24.1944    16.6656   -19.3426 H          1  LIG1   0.0600
     30 H7        -22.2754    18.2828   -18.3759 H          1  LIG1   0.0800
     31 H8        -22.4937    17.2072   -16.9598 H          1  LIG1   0.0900
     32 H9        -20.0982    18.3810   -17.3516 H          1  LIG1   0.1000
     33 H10       -20.1489    16.6491   -16.8843 H          1  LIG1   0.0800
     34 H11       -17.2860    18.1441   -19.0020 H          1  LIG1   0.1500
     35 H12       -18.1616    17.9537   -17.4641 H          1  LIG1   0.1300
     36 H13       -15.8536    16.2035   -18.4271 H          1  LIG1   0.1000
     37 H14       -15.7465    17.4686   -17.1795 H          1  LIG1   0.0700
     38 H15       -17.4171    15.1012   -16.9966 H          1  LIG1   0.4100
     39 H16       -16.9646    15.6532   -20.0828 H          1  LIG1   0.1700
     40 H17       -18.6180    15.3296   -20.6572 H          1  LIG1   0.1700
     41 H18       -18.0363    20.9816   -23.8116 H          1  LIG1   0.1400
     42 H19       -16.7075    22.9049   -24.5776 H          1  LIG1   0.1500
     43 H20       -13.4523    21.6539   -22.1169 H          1  LIG1   0.1500
     44 H21       -14.7709    19.7295   -21.3365 H          1  LIG1   0.1400
     45 H22       -20.4439    14.9264   -19.3293 H          1  LIG1   0.0800
     46 H23       -20.9486    16.0384   -20.6331 H          1  LIG1   0.1000
@<TRIPOS>BOND
     1    1    2 1
     2    1   27 1
     3    1   28 1
     4    1   29 1
     5    2    3 1
     6    2   26 1
     7    2    4 1
     8    4    5 1
     9    4   30 1
    10    4   31 1
    11    5    6 1
    12    5   32 1
    13    5   33 1
    14    6    7 1
    15    6    8 1
    16    6   26 1
    17    8    9 1
    18    8   10 1
    19    8   13 1
    20   10   11 1
    21   10   34 1
    22   10   35 1
    23   11   12 1
    24   11   36 1
    25   11   37 1
    26   12   38 1
    27   13   14 1
    28   13   39 1
    29   13   40 1
    30   14   25 1
    31   14   15 2
    32   15   16 1
    33   16   17 1
    34   16   24 2
    35   17   23 ar
    36   17   18 ar
    37   18   19 ar
    38   18   41 1
    39   19   20 ar
    40   19   42 1
    41   20   21 1
    42   20   22 ar
    43   22   23 ar
    44   22   43 1
    45   23   44 1
    46   24   25 1
    47   26   45 1
    48   26   46 1
##########                 Name:     ZINC000453411005
##########          Protonation:                 none
##########               SMILES:   CNC(=O)C[C@H](C)[NH2+][C@@H]1CCC[C@@H](C2=CC=CC(Cl)=C2)C1
##########            Long Name:   NO_LONG_NAME
##########          FlexRecCode: 1
##########               Number:                 9595
##########   Ligand Source File: /nfs/db/export/3D/DG/ADRO/DGADRO.xanl.db2.gz
##########                 Rank:                    1
##########               Setnum:                   66
##########             Matchnum:                    1
##########                Cloud:                    1
##########        Electrostatic:           -44.912346
##########                 Gist:             0.000000
##########        Van der Waals:           -27.845970
##########  Ligand Polar Desolv:            13.206122
########## Ligand Apolar Desolv:            -4.583548
##########      Internal Energy:             0.000000
##########      Receptor Energy:             0.000000
########## Receptor Desolvation:             0.000000
########## Receptor Hydrophobic:             0.000000
##########         Total Energy:           -64.135742
##########        Ligand Charge:             1.000000
##########            Arbitrary:    +999.9990
##########        Ligand Energy:             0.000000

@<TRIPOS>MOLECULE
 ZINC000453411005      none
   47    48     0     0     0



@<TRIPOS>ATOM
      1 C1        -23.3126    18.1007   -20.3826 C.3        1  LIG1   0.0800
      2 N1        -22.3993    17.3012   -19.5623 N.am       1  LIG1  -0.7100
      3 C2        -21.3616    17.8924   -18.9377 C.2        1  LIG1   0.5000
      4 O1        -21.1839    19.0864   -19.0548 O.2        1  LIG1  -0.5500
      5 C3        -20.4221    17.0699   -18.0941 C.3        1  LIG1  -0.1700
      6 C4        -19.0035    17.1792   -18.6565 C.3        1  LIG1   0.0400
      7 H1        -18.6863    18.2219   -18.6422 H          1  LIG1   0.1500
      8 C5        -18.9839    16.6598   -20.0956 C.3        1  LIG1  -0.1800
      9 N2        -18.0876    16.3774   -17.8342 N.4        1  LIG1  -0.5100
     10 H2        -18.5382    15.5128   -17.5747 H          1  LIG1   0.4300
     11 H3        -17.2511    16.1759   -18.3612 H          1  LIG1   0.4200
     12 C6        -17.7335    17.1279   -16.6220 C.3        1  LIG1   0.0300
     13 H4        -18.6155    17.6457   -16.2446 H          1  LIG1   0.1400
     14 C7        -16.6453    18.1507   -16.9549 C.3        1  LIG1  -0.1400
     15 C8        -15.4074    17.4241   -17.4845 C.3        1  LIG1  -0.1300
     16 C9        -14.8891    16.4564   -16.4187 C.3        1  LIG1  -0.1200
     17 C10       -15.9773    15.4337   -16.0858 C.3        1  LIG1  -0.0600
     18 H5        -16.2400    14.8769   -16.9852 H          1  LIG1   0.1000
     19 C11       -15.4667    14.4806   -15.0360 C.ar       1  LIG1  -0.0800
     20 C12       -15.9306    13.1791   -15.0001 C.ar       1  LIG1  -0.1100
     21 C13       -15.4622    12.3040   -14.0375 C.ar       1  LIG1  -0.1000
     22 C14       -14.5303    12.7305   -13.1105 C.ar       1  LIG1  -0.1100
     23 C15       -14.0655    14.0333   -13.1460 C.ar       1  LIG1  -0.0300
     24 Cl1       -12.8943    14.5695   -11.9821 Cl         1  LIG1  -0.0600
     25 C16       -14.5302    14.9067   -14.1128 C.ar       1  LIG1  -0.1000
     26 C17       -17.2152    16.1603   -15.5562 C.3        1  LIG1  -0.1300
     27 H6        -24.0829    17.4545   -20.8037 H          1  LIG1   0.0700
     28 H7        -23.7796    18.8674   -19.7643 H          1  LIG1   0.0900
     29 H8        -22.7549    18.5751   -21.1900 H          1  LIG1   0.0700
     30 H9        -22.5414    16.3462   -19.4687 H          1  LIG1   0.4100
     31 H10       -20.4360    17.4399   -17.0690 H          1  LIG1   0.1200
     32 H11       -20.7393    16.0272   -18.1084 H          1  LIG1   0.1400
     33 H12       -17.9732    16.7377   -20.4963 H          1  LIG1   0.1100
     34 H13       -19.3010    15.6170   -20.1097 H          1  LIG1   0.0900
     35 H14       -19.6636    17.2546   -20.7057 H          1  LIG1   0.0800
     36 H15       -17.0147    18.8400   -17.7142 H          1  LIG1   0.0900
     37 H16       -16.3827    18.7075   -16.0555 H          1  LIG1   0.1100
     38 H17       -15.6701    16.8671   -18.3840 H          1  LIG1   0.0600
     39 H18       -14.6322    18.1526   -17.7218 H          1  LIG1   0.0900
     40 H19       -14.0071    15.9386   -16.7961 H          1  LIG1   0.0800
     41 H20       -14.6265    17.0133   -15.5193 H          1  LIG1   0.0800
     42 H21       -16.6594    12.8457   -15.7239 H          1  LIG1   0.1300
     43 H22       -15.8250    11.2873   -14.0099 H          1  LIG1   0.1400
     44 H23       -14.1650    12.0470   -12.3582 H          1  LIG1   0.1400
     45 H24       -14.1678    15.9238   -14.1410 H          1  LIG1   0.1400
     46 H25       -16.9525    16.7174   -14.6567 H          1  LIG1   0.1100
     47 H26       -17.9905    15.4318   -15.3189 H          1  LIG1   0.0900
@<TRIPOS>BOND
     1    1    2 1
     2    1   27 1
     3    1   28 1
     4    1   29 1
     5    2    3 am
     6    2   30 1
     7    3    4 2
     8    3    5 1
     9    5    6 1
    10    5   31 1
    11    5   32 1
    12    6    7 1
    13    6    8 1
    14    6    9 1
    15    8   33 1
    16    8   34 1
    17    8   35 1
    18    9   10 1
    19    9   11 1
    20    9   12 1
    21   12   13 1
    22   12   26 1
    23   12   14 1
    24   14   15 1
    25   14   36 1
    26   14   37 1
    27   15   16 1
    28   15   38 1
    29   15   39 1
    30   16   17 1
    31   16   40 1
    32   16   41 1
    33   17   18 1
    34   17   19 1
    35   17   26 1
    36   19   25 ar
    37   19   20 ar
    38   20   21 ar
    39   20   42 1
    40   21   22 ar
    41   21   43 1
    42   22   23 ar
    43   22   44 1
    44   23   24 1
    45   23   25 ar
    46   25   45 1
    47   26   46 1
    48   26   47 1
##########                 Name:     ZINC000637866882
##########          Protonation:                 none
##########               SMILES:   COC1=CC=CC(C[C@H]([NH3+])C(=O)N[C@H](C)C2=CC=CC=C2)=C1
##########            Long Name:   NO_LONG_NAME
##########          FlexRecCode: 1
##########               Number:                 4672
##########   Ligand Source File: /nfs/db/export/3D/CE/ADRO/CEADRO.xalw.db2.gz
##########                 Rank:                    1
##########               Setnum:                  136
##########             Matchnum:                    1
##########                Cloud:                    1
##########        Electrostatic:           -45.455742
##########                 Gist:             0.000000
##########        Van der Waals:           -27.487583
##########  Ligand Polar Desolv:            14.025856
########## Ligand Apolar Desolv:            -3.463928
##########      Internal Energy:             0.000000
##########      Receptor Energy:             0.000000
########## Receptor Desolvation:             0.000000
########## Receptor Hydrophobic:             0.000000
##########         Total Energy:           -62.381401
##########        Ligand Charge:             1.000000
##########            Arbitrary:    +999.9990
##########        Ligand Energy:             0.000000

@<TRIPOS>MOLECULE
 ZINC000637866882      none
   45    46     0     0     0



@<TRIPOS>ATOM
      1 C1        -20.6114    19.5796   -21.2391 C.3        1  LIG1   0.0200
      2 O1        -19.7007    19.1903   -22.2693 O.3        1  LIG1  -0.3100
      3 C2        -18.4959    18.7005   -21.8752 C.ar       1  LIG1   0.1500
      4 C3        -17.5615    18.3089   -22.8224 C.ar       1  LIG1  -0.2000
      5 C4        -16.3372    17.8118   -22.4191 C.ar       1  LIG1  -0.0600
      6 C5        -16.0430    17.7041   -21.0727 C.ar       1  LIG1  -0.1800
      7 C6        -16.9732    18.0934   -20.1262 C.ar       1  LIG1  -0.0900
      8 C7        -16.6495    17.9742   -18.6591 C.3        1  LIG1  -0.0900
      9 C8        -17.0928    16.6016   -18.1489 C.3        1  LIG1   0.0100
     10 H1        -16.5682    15.8219   -18.7012 H          1  LIG1   0.1700
     11 N1        -18.5409    16.4506   -18.3449 N.4        1  LIG1  -0.6200
     12 H2        -18.7575    16.5304   -19.3271 H          1  LIG1   0.4400
     13 H3        -18.8331    15.5455   -18.0085 H          1  LIG1   0.4400
     14 H4        -19.0265    17.1724   -17.8337 H          1  LIG1   0.4400
     15 C9        -16.7694    16.4825   -16.6819 C.2        1  LIG1   0.5000
     16 O2        -17.2551    17.2608   -15.8887 O.2        1  LIG1  -0.5200
     17 N2        -15.9402    15.5111   -16.2513 N.am       1  LIG1  -0.7000
     18 C10       -15.6258    15.3953   -14.8252 C.3        1  LIG1   0.1900
     19 H5        -16.4841    15.7187   -14.2364 H          1  LIG1   0.1100
     20 C11       -14.4197    16.2773   -14.4958 C.3        1  LIG1  -0.1600
     21 C12       -15.3033    13.9603   -14.4968 C.ar       1  LIG1  -0.1100
     22 C13       -14.4244    13.6668   -13.4708 C.ar       1  LIG1  -0.1200
     23 C14       -14.1287    12.3504   -13.1696 C.ar       1  LIG1  -0.1100
     24 C15       -14.7120    11.3277   -13.8940 C.ar       1  LIG1  -0.1100
     25 C16       -15.5915    11.6213   -14.9192 C.ar       1  LIG1  -0.1100
     26 C17       -15.8906    12.9374   -15.2177 C.ar       1  LIG1  -0.1000
     27 C18       -18.1963    18.5968   -20.5243 C.ar       1  LIG1  -0.1400
     28 H6        -21.5317    19.9515   -21.6892 H          1  LIG1   0.0600
     29 H7        -20.8370    18.7190   -20.6093 H          1  LIG1   0.0600
     30 H8        -20.1600    20.3650   -20.6329 H          1  LIG1   0.1100
     31 H9        -17.7909    18.3921   -23.8745 H          1  LIG1   0.1400
     32 H10       -15.6092    17.5067   -23.1564 H          1  LIG1   0.1400
     33 H11       -15.0856    17.3149   -20.7593 H          1  LIG1   0.1300
     34 H12       -15.5751    18.0862   -18.5138 H          1  LIG1   0.1300
     35 H13       -17.1742    18.7540   -18.1069 H          1  LIG1   0.1100
     36 H14       -15.5518    14.8885   -16.8858 H          1  LIG1   0.4100
     37 H15       -14.1856    16.1912   -13.4347 H          1  LIG1   0.0600
     38 H16       -13.5614    15.9537   -15.0846 H          1  LIG1   0.0700
     39 H17       -14.6528    17.3152   -14.7335 H          1  LIG1   0.0800
     40 H18       -13.9687    14.4658   -12.9050 H          1  LIG1   0.1200
     41 H19       -13.4416    12.1211   -12.3686 H          1  LIG1   0.1300
     42 H20       -14.4803    10.2994   -13.6591 H          1  LIG1   0.1300
     43 H21       -16.0469    10.8222   -15.4853 H          1  LIG1   0.1300
     44 H22       -16.5777    13.1668   -16.0187 H          1  LIG1   0.1300
     45 H23       -18.9221    18.9010   -19.7848 H          1  LIG1   0.1400
@<TRIPOS>BOND
     1    1    2 1
     2    1   28 1
     3    1   29 1
     4    1   30 1
     5    2    3 1
     6    3   27 ar
     7    3    4 ar
     8    4    5 ar
     9    4   31 1
    10    5    6 ar
    11    5   32 1
    12    6    7 ar
    13    6   33 1
    14    7    8 1
    15    7   27 ar
    16    8    9 1
    17    8   34 1
    18    8   35 1
    19    9   10 1
    20    9   11 1
    21    9   15 1
    22   11   12 1
    23   11   13 1
    24   11   14 1
    25   15   16 2
    26   15   17 am
    27   17   18 1
    28   17   36 1
    29   18   19 1
    30   18   20 1
    31   18   21 1
    32   20   37 1
    33   20   38 1
    34   20   39 1
    35   21   26 ar
    36   21   22 ar
    37   22   23 ar
    38   22   40 1
    39   23   24 ar
    40   23   41 1
    41   24   25 ar
    42   24   42 1
    43   25   26 ar
    44   25   43 1
    45   26   44 1
    46   27   45 1
##########                 Name:     ZINC000537964898
##########          Protonation:                 none
##########               SMILES:   CCN(CC)C(=O)C[C@H](C)[NH2+]CCc1cccc2ccccc21
##########            Long Name:   NO_LONG_NAME
##########          FlexRecCode: 1
##########               Number:                 1117
##########   Ligand Source File: /nfs/db/export/3D/DH/ADRO/DHADRO.xmt.db2.gz
##########                 Rank:                    1
##########               Setnum:                   84
##########             Matchnum:                    1
##########                Cloud:                    1
##########        Electrostatic:           -36.251053
##########                 Gist:             0.000000
##########        Van der Waals:           -33.549850
##########  Ligand Polar Desolv:            13.119908
########## Ligand Apolar Desolv:            -6.585552
##########      Internal Energy:             0.000000
##########      Receptor Energy:             0.000000
########## Receptor Desolvation:             0.000000
########## Receptor Hydrophobic:             0.000000
##########         Total Energy:           -63.266548
##########        Ligand Charge:             1.000000
##########            Arbitrary:    +999.9990
##########        Ligand Energy:             0.000000

@<TRIPOS>MOLECULE
 ZINC000537964898      none
   52    53     0     0     0



@<TRIPOS>ATOM
      1 C1        -13.4056    14.9588   -12.9337 C.3        1  LIG1  -0.1800
      2 C2        -13.4380    14.3090   -14.3185 C.3        1  LIG1   0.0900
      3 N1        -14.7969    14.3829   -14.8608 N.am       1  LIG1  -0.5900
      4 C3        -15.7495    13.3006   -14.6003 C.3        1  LIG1   0.1000
      5 C4        -15.6405    12.2483   -15.7057 C.3        1  LIG1  -0.1700
      6 C5        -15.1709    15.4463   -15.5993 C.2        1  LIG1   0.5000
      7 O1        -14.3825    16.3424   -15.8150 O.2        1  LIG1  -0.5600
      8 C6        -16.5689    15.5224   -16.1571 C.3        1  LIG1  -0.1700
      9 C7        -16.7316    16.8205   -16.9503 C.3        1  LIG1   0.0500
     10 H1        -15.8236    17.0135   -17.5216 H          1  LIG1   0.1500
     11 C8        -16.9825    17.9803   -15.9843 C.3        1  LIG1  -0.1800
     12 N2        -17.8707    16.6934   -17.8692 N.4        1  LIG1  -0.5100
     13 H2        -18.6223    16.2038   -17.4073 H          1  LIG1   0.4300
     14 H3        -18.1858    17.6119   -18.1432 H          1  LIG1   0.4200
     15 C9        -17.4564    15.9420   -19.0614 C.3        1  LIG1  -0.0100
     16 C10       -18.6428    15.8096   -20.0185 C.3        1  LIG1  -0.1000
     17 C11       -19.1136    17.1814   -20.4278 C.ar       1  LIG1  -0.1000
     18 C12       -20.4856    17.4844   -20.4338 C.ar       1  LIG1  -0.0400
     19 C13       -21.4460    16.5279   -20.0621 C.ar       1  LIG1  -0.1300
     20 C14       -22.7663    16.8574   -20.0797 C.ar       1  LIG1  -0.1000
     21 C15       -23.1831    18.1314   -20.4618 C.ar       1  LIG1  -0.1200
     22 C16       -22.2819    19.0829   -20.8285 C.ar       1  LIG1  -0.1000
     23 C17       -20.9095    18.7802   -20.8219 C.ar       1  LIG1  -0.0500
     24 C18       -19.9494    19.7363   -21.1934 C.ar       1  LIG1  -0.0800
     25 C19       -18.6287    19.4072   -21.1747 C.ar       1  LIG1  -0.1200
     26 C20       -18.2117    18.1351   -20.7883 C.ar       1  LIG1  -0.0900
     27 H4        -12.3945    14.9038   -12.5302 H          1  LIG1   0.0700
     28 H5        -13.7081    16.0027   -13.0151 H          1  LIG1   0.0600
     29 H6        -14.0910    14.4326   -12.2693 H          1  LIG1   0.0800
     30 H7        -12.7525    14.8351   -14.9828 H          1  LIG1   0.0900
     31 H8        -13.1355    13.2649   -14.2371 H          1  LIG1   0.0800
     32 H9        -15.5235    12.8414   -13.6380 H          1  LIG1   0.0900
     33 H10       -16.7617    13.7044   -14.5815 H          1  LIG1   0.0900
     34 H11       -16.3493    11.4432   -15.5117 H          1  LIG1   0.0800
     35 H12       -15.8666    12.7075   -16.6680 H          1  LIG1   0.0600
     36 H13       -14.6283    11.8447   -15.7245 H          1  LIG1   0.0600
     37 H14       -16.7446    14.6706   -16.8141 H          1  LIG1   0.1200
     38 H15       -17.2882    15.5043   -15.3383 H          1  LIG1   0.1400
     39 H16       -17.0983    18.9052   -16.5493 H          1  LIG1   0.1100
     40 H17       -17.8904    17.7872   -15.4129 H          1  LIG1   0.0900
     41 H18       -16.1372    18.0745   -15.3025 H          1  LIG1   0.0800
     42 H19       -16.6444    16.4709   -19.5604 H          1  LIG1   0.1400
     43 H20       -17.1159    14.9498   -18.7655 H          1  LIG1   0.1300
     44 H21       -18.3355    15.2519   -20.9032 H          1  LIG1   0.1000
     45 H22       -19.4548    15.2806   -19.5196 H          1  LIG1   0.1000
     46 H23       -21.1379    15.5365   -19.7644 H          1  LIG1   0.1200
     47 H24       -23.5023    16.1206   -19.7936 H          1  LIG1   0.1300
     48 H25       -24.2371    18.3668   -20.4674 H          1  LIG1   0.1300
     49 H26       -22.6196    20.0656   -21.1230 H          1  LIG1   0.1300
     50 H27       -20.2577    20.7272   -21.4927 H          1  LIG1   0.1300
     51 H28       -17.8927    20.1440   -21.4610 H          1  LIG1   0.1300
     52 H29       -17.1577    17.8999   -20.7818 H          1  LIG1   0.1300
@<TRIPOS>BOND
     1    1    2 1
     2    1   27 1
     3    1   28 1
     4    1   29 1
     5    2    3 1
     6    2   30 1
     7    2   31 1
     8    3    4 1
     9    3    6 am
    10    4    5 1
    11    4   32 1
    12    4   33 1
    13    5   34 1
    14    5   35 1
    15    5   36 1
    16    6    7 2
    17    6    8 1
    18    8    9 1
    19    8   37 1
    20    8   38 1
    21    9   10 1
    22    9   11 1
    23    9   12 1
    24   11   39 1
    25   11   40 1
    26   11   41 1
    27   12   13 1
    28   12   14 1
    29   12   15 1
    30   15   16 1
    31   15   42 1
    32   15   43 1
    33   16   17 1
    34   16   44 1
    35   16   45 1
    36   17   26 ar
    37   17   18 ar
    38   18   23 ar
    39   18   19 ar
    40   19   20 ar
    41   19   46 1
    42   20   21 ar
    43   20   47 1
    44   21   22 ar
    45   21   48 1
    46   22   23 ar
    47   22   49 1
    48   23   24 ar
    49   24   25 ar
    50   24   50 1
    51   25   26 ar
    52   25   51 1
    53   26   52 1
##########                 Name:     ZINC000075783039
##########          Protonation:                 none
##########               SMILES:   CC1=CC=C(NC(=O)[C@@H](C)[N@@H+](C)CC[C@@H](C)O)C(Br)=C1
##########            Long Name:   NO_LONG_NAME
##########          FlexRecCode: 1
##########               Number:                  883
##########   Ligand Source File: /nfs/db/export/3D/EF/ADRO/EFADRO.xawg.db2.gz
##########                 Rank:                    1
##########               Setnum:                  224
##########             Matchnum:                    1
##########                Cloud:                    1
##########        Electrostatic:           -42.457203
##########                 Gist:             0.000000
##########        Van der Waals:           -29.978893
##########  Ligand Polar Desolv:            11.785002
########## Ligand Apolar Desolv:            -3.409696
##########      Internal Energy:             0.000000
##########      Receptor Energy:             0.000000
########## Receptor Desolvation:             0.000000
########## Receptor Hydrophobic:             0.000000
##########         Total Energy:           -64.060791
##########        Ligand Charge:             1.000000
##########            Arbitrary:    +999.9990
##########        Ligand Energy:             0.000000

@<TRIPOS>MOLECULE
 ZINC000075783039      none
   44    44     0     0     0



@<TRIPOS>ATOM
      1 C1        -12.3482    13.8420   -12.1700 C.3        1  LIG1  -0.1200
      2 C2        -13.2555    14.1871   -13.3227 C.ar       1  LIG1  -0.0800
      3 C3        -13.1662    15.4294   -13.9228 C.ar       1  LIG1  -0.0800
      4 C4        -13.9967    15.7495   -14.9795 C.ar       1  LIG1  -0.1200
      5 C5        -14.9214    14.8220   -15.4393 C.ar       1  LIG1   0.1400
      6 N1        -15.7637    15.1432   -16.5101 N.am       1  LIG1  -0.6400
      7 C6        -16.1393    16.4216   -16.7121 C.2        1  LIG1   0.5100
      8 O1        -15.7473    17.2940   -15.9662 O.2        1  LIG1  -0.5000
      9 C7        -17.0462    16.7674   -17.8650 C.3        1  LIG1   0.0100
     10 H1        -16.8318    17.7807   -18.2048 H          1  LIG1   0.1600
     11 C8        -16.8097    15.7837   -19.0128 C.3        1  LIG1  -0.1800
     12 N2        -18.4465    16.6832   -17.4288 N.4        1  LIG1  -0.3700
     13 H2        -18.7414    15.7183   -17.4292 H          1  LIG1   0.4300
     14 C9        -18.5706    17.2326   -16.0721 C.3        1  LIG1  -0.0600
     15 C10       -19.2931    17.4543   -18.3488 C.3        1  LIG1  -0.0100
     16 C11       -20.7440    16.9861   -18.2203 C.3        1  LIG1  -0.1400
     17 C12       -21.6260    17.7894   -19.1786 C.3        1  LIG1   0.1100
     18 H3        -21.3073    18.8318   -19.1782 H          1  LIG1   0.0700
     19 C13       -21.4968    17.2171   -20.5915 C.3        1  LIG1  -0.1900
     20 O2        -22.9879    17.7076   -18.7540 O.3        1  LIG1  -0.5700
     21 C14       -15.0088    13.5738   -14.8347 C.ar       1  LIG1  -0.1100
     22 Br1       -16.2666    12.3063   -15.4569 Br         1  LIG1  -0.0300
     23 C15       -14.1717    13.2583   -13.7817 C.ar       1  LIG1  -0.0700
     24 H4        -11.7001    14.6906   -11.9510 H          1  LIG1   0.0800
     25 H5        -12.9497    13.6080   -11.2915 H          1  LIG1   0.0800
     26 H6        -11.7386    12.9777   -12.4336 H          1  LIG1   0.0700
     27 H7        -12.4466    16.1509   -13.5647 H          1  LIG1   0.1400
     28 H8        -13.9266    16.7205   -15.4470 H          1  LIG1   0.1600
     29 H9        -16.0772    14.4455   -17.1067 H          1  LIG1   0.4200
     30 H10       -17.4656    16.0338   -19.8466 H          1  LIG1   0.1000
     31 H11       -15.7706    15.8462   -19.3364 H          1  LIG1   0.1100
     32 H12       -17.0239    14.7705   -18.6731 H          1  LIG1   0.0900
     33 H13       -19.6097    17.1702   -15.7484 H          1  LIG1   0.1300
     34 H14       -17.9424    16.6606   -15.3894 H          1  LIG1   0.1300
     35 H15       -18.2521    18.2751   -16.0716 H          1  LIG1   0.1300
     36 H16       -19.2297    18.5135   -18.0994 H          1  LIG1   0.1400
     37 H17       -18.9511    17.3010   -19.3723 H          1  LIG1   0.1300
     38 H18       -20.8075    15.9270   -18.4698 H          1  LIG1   0.1000
     39 H19       -21.0861    17.1395   -17.1968 H          1  LIG1   0.1000
     40 H20       -22.1250    17.7892   -21.2741 H          1  LIG1   0.0700
     41 H21       -20.4578    17.2796   -20.9153 H          1  LIG1   0.0700
     42 H22       -21.8154    16.1747   -20.5919 H          1  LIG1   0.0700
     43 H23       -23.3390    16.8069   -18.7300 H          1  LIG1   0.4000
     44 H24       -14.2388    12.2886   -13.3111 H          1  LIG1   0.1400
@<TRIPOS>BOND
     1    1    2 1
     2    1   24 1
     3    1   25 1
     4    1   26 1
     5    2   23 ar
     6    2    3 ar
     7    3    4 ar
     8    3   27 1
     9    4    5 ar
    10    4   28 1
    11    5    6 1
    12    5   21 ar
    13    6    7 am
    14    6   29 1
    15    7    8 2
    16    7    9 1
    17    9   10 1
    18    9   11 1
    19    9   12 1
    20   11   30 1
    21   11   31 1
    22   11   32 1
    23   12   13 1
    24   12   14 1
    25   12   15 1
    26   14   33 1
    27   14   34 1
    28   14   35 1
    29   15   16 1
    30   15   36 1
    31   15   37 1
    32   16   17 1
    33   16   38 1
    34   16   39 1
    35   17   18 1
    36   17   19 1
    37   17   20 1
    38   19   40 1
    39   19   41 1
    40   19   42 1
    41   20   43 1
    42   21   22 1
    43   21   23 ar
    44   23   44 1
##########                 Name:     ZINC000516048764
##########          Protonation:                 none
##########               SMILES:   CC1=C2C=CC=CC2=NC(C[NH2+]C[C@@H](O)COC2=CC=CC=C2Cl)=N1
##########            Long Name:   NO_LONG_NAME
##########          FlexRecCode: 1
##########               Number:                13283
##########   Ligand Source File: /nfs/db/export/3D/FG/ADMO/FGADMO.xaqx.db2.gz
##########                 Rank:                    1
##########               Setnum:                  183
##########             Matchnum:                    1
##########                Cloud:                    1
##########        Electrostatic:           -46.763023
##########                 Gist:             0.000000
##########        Van der Waals:           -32.051754
##########  Ligand Polar Desolv:            19.123383
########## Ligand Apolar Desolv:            -3.390254
##########      Internal Energy:             0.000000
##########      Receptor Energy:             0.000000
########## Receptor Desolvation:             0.000000
########## Receptor Hydrophobic:             0.000000
##########         Total Energy:           -63.081642
##########        Ligand Charge:             1.000000
##########            Arbitrary:    +999.9990
##########        Ligand Energy:             0.000000

@<TRIPOS>MOLECULE
 ZINC000516048764      none
   46    48     0     0     0



@<TRIPOS>ATOM
      1 C1        -16.5533    11.5633   -15.5759 C.3        1  LIG1  -0.1200
      2 C2        -15.9526    12.9319   -15.3830 C.ar       1  LIG1   0.2500
      3 C3        -15.0463    13.1802   -14.3372 C.ar       1  LIG1  -0.1400
      4 C4        -14.6591    12.1809   -13.4320 C.ar       1  LIG1  -0.0800
      5 C5        -13.7767    12.4815   -12.4388 C.ar       1  LIG1  -0.0900
      6 C6        -13.2538    13.7667   -12.3088 C.ar       1  LIG1  -0.0700
      7 C7        -13.6082    14.7607   -13.1701 C.ar       1  LIG1  -0.1000
      8 C8        -14.5140    14.4891   -14.2060 C.ar       1  LIG1   0.1600
      9 N1        -14.8958    15.4282   -15.0801 N.ar       1  LIG1  -0.4800
     10 C9        -15.7450    15.1353   -16.0358 C.ar       1  LIG1   0.2500
     11 C10       -16.1484    16.2214   -16.9994 C.3        1  LIG1   0.0800
     12 N2        -17.0986    15.6785   -17.9794 N.4        1  LIG1  -0.5000
     13 H1        -16.6632    14.9232   -18.4872 H          1  LIG1   0.4300
     14 H2        -17.9165    15.3338   -17.4995 H          1  LIG1   0.4400
     15 C11       -17.4919    16.7373   -18.9187 C.3        1  LIG1  -0.0400
     16 C12       -18.4815    16.1719   -19.9393 C.3        1  LIG1   0.0900
     17 H3        -18.0112    15.3558   -20.4879 H          1  LIG1   0.1400
     18 O1        -19.6399    15.6836   -19.2597 O.3        1  LIG1  -0.5400
     19 C13       -18.8912    17.2747   -20.9175 C.3        1  LIG1   0.0300
     20 O2        -17.7328    17.7630   -21.5971 O.3        1  LIG1  -0.2900
     21 C14       -17.7513    19.0636   -21.9916 C.ar       1  LIG1   0.1300
     22 C15       -18.7259    19.5089   -22.8716 C.ar       1  LIG1  -0.2000
     23 C16       -18.7428    20.8318   -23.2708 C.ar       1  LIG1  -0.0700
     24 C17       -17.7891    21.7115   -22.7943 C.ar       1  LIG1  -0.1300
     25 C18       -16.8156    21.2709   -21.9164 C.ar       1  LIG1  -0.0700
     26 C19       -16.7974    19.9501   -21.5094 C.ar       1  LIG1  -0.0600
     27 Cl1       -15.5754    19.3971   -20.4075 Cl         1  LIG1  -0.0500
     28 N3        -16.2596    13.9247   -16.1938 N.ar       1  LIG1  -0.5200
     29 H4        -16.1749    10.8889   -14.8078 H          1  LIG1   0.1000
     30 H5        -17.6387    11.6288   -15.4992 H          1  LIG1   0.0900
     31 H6        -16.2808    11.1823   -16.5602 H          1  LIG1   0.1000
     32 H7        -15.0577    11.1812   -13.5217 H          1  LIG1   0.1500
     33 H8        -13.4780    11.7126   -11.7415 H          1  LIG1   0.1500
     34 H9        -12.5564    13.9782   -11.5118 H          1  LIG1   0.1500
     35 H10       -13.1944    15.7517   -13.0560 H          1  LIG1   0.1500
     36 H11       -16.6188    17.0375   -16.4508 H          1  LIG1   0.1600
     37 H12       -15.2649    16.5939   -17.5177 H          1  LIG1   0.1600
     38 H13       -17.9623    17.5534   -18.3701 H          1  LIG1   0.1400
     39 H14       -16.6083    17.1098   -19.4370 H          1  LIG1   0.1500
     40 H15       -19.4547    14.9805   -18.6222 H          1  LIG1   0.3900
     41 H16       -19.5962    16.8718   -21.6447 H          1  LIG1   0.0800
     42 H17       -19.3615    18.0907   -20.3690 H          1  LIG1   0.0800
     43 H18       -19.4710    18.8220   -23.2451 H          1  LIG1   0.1300
     44 H19       -19.5020    21.1786   -23.9564 H          1  LIG1   0.1400
     45 H20       -17.8039    22.7448   -23.1082 H          1  LIG1   0.1400
     46 H21       -16.0715    21.9602   -21.5454 H          1  LIG1   0.1500
@<TRIPOS>BOND
     1    1    2 1
     2    1   29 1
     3    1   30 1
     4    1   31 1
     5    2   28 ar
     6    2    3 ar
     7    3    8 ar
     8    3    4 ar
     9    4    5 ar
    10    4   32 1
    11    5    6 ar
    12    5   33 1
    13    6    7 ar
    14    6   34 1
    15    7    8 ar
    16    7   35 1
    17    8    9 ar
    18    9   10 ar
    19   10   11 1
    20   10   28 ar
    21   11   12 1
    22   11   36 1
    23   11   37 1
    24   12   13 1
    25   12   14 1
    26   12   15 1
    27   15   16 1
    28   15   38 1
    29   15   39 1
    30   16   17 1
    31   16   18 1
    32   16   19 1
    33   18   40 1
    34   19   20 1
    35   19   41 1
    36   19   42 1
    37   20   21 1
    38   21   26 ar
    39   21   22 ar
    40   22   23 ar
    41   22   43 1
    42   23   24 ar
    43   23   44 1
    44   24   25 ar
    45   24   45 1
    46   25   26 ar
    47   25   46 1
    48   26   27 1
##########                 Name:     ZINC000359626374
##########          Protonation:                 none
##########               SMILES:   CC[N@@H+](CC1=CN(C)N=N1)C[C@H](O)CC1=CC=CC=C1C(F)(F)F
##########            Long Name:   NO_LONG_NAME
##########          FlexRecCode: 1
##########               Number:                 6768
##########   Ligand Source File: /nfs/db/export/3D/EE/ADMO/EEADMO.xajm.db2.gz
##########                 Rank:                    1
##########               Setnum:                   53
##########             Matchnum:                    1
##########                Cloud:                    1
##########        Electrostatic:           -48.760239
##########                 Gist:             0.000000
##########        Van der Waals:           -27.292088
##########  Ligand Polar Desolv:            16.816360
########## Ligand Apolar Desolv:            -3.952792
##########      Internal Energy:             0.000000
##########      Receptor Energy:             0.000000
########## Receptor Desolvation:             0.000000
########## Receptor Hydrophobic:             0.000000
##########         Total Energy:           -63.188751
##########        Ligand Charge:             1.000000
##########            Arbitrary:    +999.9990
##########        Ligand Energy:             0.000000

@<TRIPOS>MOLECULE
 ZINC000359626374      none
   46    47     0     0     0



@<TRIPOS>ATOM
      1 C1        -19.7060    17.4306   -18.9879 C.3        1  LIG1  -0.1800
      2 C2        -18.5661    17.7281   -18.0117 C.3        1  LIG1  -0.0300
      3 N1        -17.8453    16.4848   -17.7070 N.4        1  LIG1  -0.3800
      4 H1        -18.4808    15.8213   -17.2899 H          1  LIG1   0.4300
      5 C3        -17.2939    15.9221   -18.9468 C.3        1  LIG1   0.0900
      6 C4        -16.7583    17.0360   -19.8093 C.2        1  LIG1  -0.1000
      7 C5        -16.9520    17.1950   -21.1393 C.2        1  LIG1  -0.0100
      8 N2        -16.2907    18.3241   -21.4841 N.pl3      1  LIG1  -0.2800
      9 C6        -16.2168    18.8985   -22.8298 C.3        1  LIG1   0.0700
     10 N3        -15.7381    18.8069   -20.4266 N.2        1  LIG1  -0.0500
     11 N4        -16.0028    18.0650   -19.4097 N.2        1  LIG1  -0.2400
     12 C7        -16.7509    16.7706   -16.7697 C.3        1  LIG1  -0.0500
     13 C8        -16.3262    15.4768   -16.0720 C.3        1  LIG1   0.0800
     14 H2        -15.9880    14.7564   -16.8167 H          1  LIG1   0.1400
     15 O1        -17.4377    14.9351   -15.3556 O.3        1  LIG1  -0.5400
     16 C9        -15.1864    15.7745   -15.0957 C.3        1  LIG1  -0.1300
     17 C10       -14.7682    14.5002   -14.4082 C.ar       1  LIG1  -0.0400
     18 C11       -15.4010    13.3102   -14.7142 C.ar       1  LIG1  -0.1000
     19 C12       -15.0173    12.1412   -14.0836 C.ar       1  LIG1  -0.0800
     20 C13       -14.0007    12.1625   -13.1474 C.ar       1  LIG1  -0.1100
     21 C14       -13.3671    13.3527   -12.8420 C.ar       1  LIG1  -0.0700
     22 C15       -13.7478    14.5207   -13.4756 C.ar       1  LIG1  -0.1800
     23 C16       -13.0572    15.8181   -13.1427 C.3        1  LIG1   0.5100
     24 F1        -13.6187    16.8526   -13.8988 F          1  LIG1  -0.1700
     25 F2        -13.2177    16.0957   -11.7810 F          1  LIG1  -0.1800
     26 F3        -11.6943    15.7104   -13.4393 F          1  LIG1  -0.1700
     27 H3        -20.2408    18.3530   -19.2141 H          1  LIG1   0.0800
     28 H4        -19.2968    17.0131   -19.9079 H          1  LIG1   0.1100
     29 H5        -20.3925    16.7137   -18.5375 H          1  LIG1   0.0800
     30 H6        -17.8796    18.4450   -18.4622 H          1  LIG1   0.1600
     31 H7        -18.9753    18.1457   -17.0918 H          1  LIG1   0.1200
     32 H8        -16.4872    15.2303   -18.7045 H          1  LIG1   0.1500
     33 H9        -18.0787    15.3909   -19.4852 H          1  LIG1   0.1500
     34 H10       -17.5197    16.5502   -21.7939 H          1  LIG1   0.2000
     35 H11       -15.6162    19.8077   -22.8042 H          1  LIG1   0.1100
     36 H12       -15.7576    18.1787   -23.5073 H          1  LIG1   0.1100
     37 H13       -17.2215    19.1366   -23.1789 H          1  LIG1   0.1100
     38 H14       -15.9030    17.1837   -17.3163 H          1  LIG1   0.1400
     39 H15       -17.0889    17.4910   -16.0250 H          1  LIG1   0.1400
     40 H16       -18.1989    14.7222   -15.9129 H          1  LIG1   0.3800
     41 H17       -14.3386    16.1876   -15.6421 H          1  LIG1   0.1000
     42 H18       -15.5245    16.4949   -14.3509 H          1  LIG1   0.1000
     43 H19       -16.1954    13.2935   -15.4457 H          1  LIG1   0.1300
     44 H20       -15.5123    11.2114   -14.3221 H          1  LIG1   0.1400
     45 H21       -13.7015    11.2494   -12.6543 H          1  LIG1   0.1400
     46 H22       -12.5729    13.3695   -12.1103 H          1  LIG1   0.1400
@<TRIPOS>BOND
     1    1    2 1
     2    1   27 1
     3    1   28 1
     4    1   29 1
     5    2    3 1
     6    2   30 1
     7    2   31 1
     8    3    4 1
     9    3    5 1
    10    3   12 1
    11    5    6 1
    12    5   32 1
    13    5   33 1
    14    6   11 1
    15    6    7 2
    16    7    8 1
    17    7   34 1
    18    8    9 1
    19    8   10 1
    20    9   35 1
    21    9   36 1
    22    9   37 1
    23   10   11 2
    24   12   13 1
    25   12   38 1
    26   12   39 1
    27   13   14 1
    28   13   15 1
    29   13   16 1
    30   15   40 1
    31   16   17 1
    32   16   41 1
    33   16   42 1
    34   17   22 ar
    35   17   18 ar
    36   18   19 ar
    37   18   43 1
    38   19   20 ar
    39   19   44 1
    40   20   21 ar
    41   20   45 1
    42   21   22 ar
    43   21   46 1
    44   22   23 1
    45   23   24 1
    46   23   25 1
    47   23   26 1
##########                 Name:     ZINC000278893295
##########          Protonation:                 none
##########               SMILES:   COC(=O)C1=C(CN2CCC(O)(C3=CC=CC=C3Cl)CC2)OC=C1
##########            Long Name:   NO_LONG_NAME
##########          FlexRecCode: 1
##########               Number:                 2776
##########   Ligand Source File: /nfs/db/export/3D/EG/ADRO/EGADRO.xbdi.db2.gz
##########                 Rank:                    1
##########               Setnum:                   23
##########             Matchnum:                    1
##########                Cloud:                    1
##########        Electrostatic:           -41.652611
##########                 Gist:             0.000000
##########        Van der Waals:           -29.274540
##########  Ligand Polar Desolv:            12.002102
########## Ligand Apolar Desolv:            -3.778509
##########      Internal Energy:             0.000000
##########      Receptor Energy:             0.000000
########## Receptor Desolvation:             0.000000
########## Receptor Hydrophobic:             0.000000
##########         Total Energy:           -62.703560
##########        Ligand Charge:             1.000000
##########            Arbitrary:    +999.9990
##########        Ligand Energy:             0.000000

@<TRIPOS>MOLECULE
 ZINC000278893295      none
   45    47     0     0     0



@<TRIPOS>ATOM
      1 C1        -13.3576    20.4135   -15.8065 C.3        1  LIG1   0.0300
      2 O1        -13.8178    19.0804   -15.4610 O.3        1  LIG1  -0.3400
      3 C2        -14.9929    18.6831   -15.9879 C.2        1  LIG1   0.5400
      4 O2        -15.6159    19.4304   -16.7163 O.2        1  LIG1  -0.5200
      5 C3        -15.5219    17.3439   -15.6811 C.2        1  LIG1  -0.1700
      6 C4        -16.6846    16.7918   -16.1356 C.2        1  LIG1  -0.0100
      7 C5        -17.6745    17.4557   -17.0577 C.3        1  LIG1   0.0800
      8 N1        -18.0949    16.4832   -18.1266 N.4        1  LIG1  -0.3800
      9 H1        -18.2017    15.5333   -17.6293 H          1  LIG1   0.4200
     10 C6        -17.0496    16.2547   -19.1883 C.3        1  LIG1   0.0000
     11 C7        -16.9745    17.4473   -20.1379 C.3        1  LIG1  -0.1400
     12 C8        -18.3379    17.7829   -20.7831 C.3        1  LIG1   0.1800
     13 O3        -18.7170    16.6384   -21.5669 O.3        1  LIG1  -0.5500
     14 C9        -18.3361    18.9989   -21.7112 C.ar       1  LIG1  -0.1200
     15 C10       -19.1481    20.0819   -21.4327 C.ar       1  LIG1  -0.0900
     16 C11       -19.1466    21.1812   -22.2715 C.ar       1  LIG1  -0.1000
     17 C12       -18.3337    21.1971   -23.3891 C.ar       1  LIG1  -0.0900
     18 C13       -17.5211    20.1145   -23.6688 C.ar       1  LIG1  -0.1000
     19 C14       -17.5175    19.0170   -22.8265 C.ar       1  LIG1  -0.0300
     20 Cl1       -16.4973    17.6568   -23.1769 Cl         1  LIG1  -0.0700
     21 C15       -19.3966    17.9587   -19.6725 C.3        1  LIG1  -0.1900
     22 C16       -19.4522    16.7749   -18.7101 C.3        1  LIG1   0.0000
     23 O4        -16.7957    15.5625   -15.6238 O.3        1  LIG1  -0.1600
     24 C17       -15.7450    15.2725   -14.8407 C.2        1  LIG1   0.0100
     25 C18       -14.9051    16.3186   -14.8262 C.2        1  LIG1  -0.1700
     26 H2        -12.4027    20.6063   -15.3173 H          1  LIG1   0.0700
     27 H3        -13.2336    20.4865   -16.8870 H          1  LIG1   0.0700
     28 H4        -14.0908    21.1485   -15.4744 H          1  LIG1   0.1100
     29 H5        -18.5489    17.7690   -16.4873 H          1  LIG1   0.1500
     30 H6        -17.2116    18.3271   -17.5210 H          1  LIG1   0.1700
     31 H7        -16.0874    16.1073   -18.6961 H          1  LIG1   0.1400
     32 H8        -17.3139    15.3524   -19.7412 H          1  LIG1   0.1400
     33 H9        -16.6144    18.3335   -19.5871 H          1  LIG1   0.1300
     34 H10       -16.2454    17.2342   -20.9386 H          1  LIG1   0.1100
     35 H11       -18.8087    15.8236   -21.0546 H          1  LIG1   0.3900
     36 H12       -19.7840    20.0698   -20.5598 H          1  LIG1   0.1400
     37 H13       -19.7815    22.0273   -22.0534 H          1  LIG1   0.1400
     38 H14       -18.3336    22.0557   -24.0444 H          1  LIG1   0.1400
     39 H15       -16.8859    20.1271   -24.5421 H          1  LIG1   0.1400
     40 H16       -19.1692    18.8808   -19.1074 H          1  LIG1   0.1200
     41 H17       -20.3866    18.0968   -20.1439 H          1  LIG1   0.1100
     42 H18       -19.7970    15.8814   -19.2366 H          1  LIG1   0.1300
     43 H19       -20.1408    16.9925   -17.8899 H          1  LIG1   0.1400
     44 H20       -15.5966    14.3431   -14.3108 H          1  LIG1   0.2300
     45 H21       -13.9706    16.3949   -14.2902 H          1  LIG1   0.1800
@<TRIPOS>BOND
     1    1    2 1
     2    1   26 1
     3    1   27 1
     4    1   28 1
     5    2    3 1
     6    3    4 2
     7    3    5 1
     8    5   25 1
     9    5    6 2
    10    6    7 1
    11    6   23 1
    12    7    8 1
    13    7   29 1
    14    7   30 1
    15    8    9 1
    16    8   22 1
    17    8   10 1
    18   10   11 1
    19   10   31 1
    20   10   32 1
    21   11   12 1
    22   11   33 1
    23   11   34 1
    24   12   13 1
    25   12   14 1
    26   12   21 1
    27   13   35 1
    28   14   19 ar
    29   14   15 ar
    30   15   16 ar
    31   15   36 1
    32   16   17 ar
    33   16   37 1
    34   17   18 ar
    35   17   38 1
    36   18   19 ar
    37   18   39 1
    38   19   20 1
    39   21   22 1
    40   21   40 1
    41   21   41 1
    42   22   42 1
    43   22   43 1
    44   23   24 1
    45   24   25 2
    46   24   44 1
    47   25   45 1
##########                 Name:     ZINC000237743869
##########          Protonation:                 none
##########               SMILES:   Cc1ccccc1-n1cc(C(=O)N2CCC([NH2+]CC3CC3)CC2)cn1
##########            Long Name:   NO_LONG_NAME
##########          FlexRecCode: 1
##########               Number:                 7150
##########   Ligand Source File: /nfs/db/export/3D/EF/ADRO/EFADRO.xcpv.db2.gz
##########                 Rank:                    1
##########               Setnum:                  172
##########             Matchnum:                    1
##########                Cloud:                    1
##########        Electrostatic:           -42.663635
##########                 Gist:             0.000000
##########        Van der Waals:           -32.762550
##########  Ligand Polar Desolv:            19.077658
########## Ligand Apolar Desolv:            -6.403017
##########      Internal Energy:             0.000000
##########      Receptor Energy:             0.000000
########## Receptor Desolvation:             0.000000
########## Receptor Hydrophobic:             0.000000
##########         Total Energy:           -62.751545
##########        Ligand Charge:             1.000000
##########            Arbitrary:    +999.9990
##########        Ligand Energy:             0.000000

@<TRIPOS>MOLECULE
 ZINC000237743869      none
   52    55     0     0     0



@<TRIPOS>ATOM
      1 C1        -12.7408    14.1142   -12.0432 C.3        1  LIG1  -0.1100
      2 C2        -13.6006    13.2199   -12.8987 C.ar       1  LIG1  -0.0600
      3 C3        -13.7918    11.8992   -12.5434 C.ar       1  LIG1  -0.1100
      4 C4        -14.5808    11.0779   -13.3280 C.ar       1  LIG1  -0.1000
      5 C5        -15.1808    11.5760   -14.4697 C.ar       1  LIG1  -0.1100
      6 C6        -14.9933    12.8962   -14.8304 C.ar       1  LIG1  -0.1100
      7 C7        -14.2061    13.7245   -14.0421 C.ar       1  LIG1   0.1200
      8 N1        -14.0139    15.0645   -14.4053 N.pl3      1  LIG1  -0.3000
      9 C8        -14.8967    15.8343   -15.0672 C.2        1  LIG1   0.1300
     10 C9        -14.3221    17.0799   -15.2231 C.2        1  LIG1  -0.3000
     11 C10       -14.9281    18.2456   -15.8916 C.2        1  LIG1   0.6100
     12 O1        -14.6390    19.3709   -15.5322 O.2        1  LIG1  -0.5200
     13 N2        -15.8026    18.0643   -16.9009 N.am       1  LIG1  -0.6200
     14 C11       -15.7059    16.8857   -17.7728 C.3        1  LIG1   0.1000
     15 C12       -17.0627    16.1749   -17.7937 C.3        1  LIG1  -0.1600
     16 C13       -18.1498    17.1714   -18.2025 C.3        1  LIG1   0.0200
     17 N3        -19.4476    16.4853   -18.2557 N.4        1  LIG1  -0.5000
     18 H1        -19.3270    15.5684   -18.6590 H          1  LIG1   0.4300
     19 H2        -19.8194    16.3958   -17.3220 H          1  LIG1   0.4300
     20 C14       -20.3800    17.2646   -19.0812 C.3        1  LIG1   0.0200
     21 C15       -21.7318    16.5500   -19.1368 C.3        1  LIG1  -0.2200
     22 C16       -22.7730    16.9251   -18.0804 C.3        1  LIG1  -0.1700
     23 C17       -22.9546    17.3812   -19.5294 C.3        1  LIG1  -0.1500
     24 C18       -18.2149    18.3067   -17.1781 C.3        1  LIG1  -0.1600
     25 C19       -16.8749    19.0385   -17.1465 C.3        1  LIG1   0.1200
     26 C20       -13.0440    17.0282   -14.6220 C.2        1  LIG1   0.0700
     27 N4        -12.8737    15.8297   -14.1356 N.2        1  LIG1  -0.2700
     28 H3        -12.3549    13.5459   -11.1970 H          1  LIG1   0.0800
     29 H4        -11.9085    14.4935   -12.6362 H          1  LIG1   0.0700
     30 H5        -13.3371    14.9503   -11.6779 H          1  LIG1   0.0600
     31 H6        -13.3246    11.5072   -11.6521 H          1  LIG1   0.1400
     32 H7        -14.7284    10.0451   -13.0485 H          1  LIG1   0.1400
     33 H8        -15.7964    10.9321   -15.0804 H          1  LIG1   0.1400
     34 H9        -15.4616    13.2845   -15.7228 H          1  LIG1   0.1300
     35 H10       -15.8745    15.5333   -15.4130 H          1  LIG1   0.1900
     36 H11       -15.4419    17.1992   -18.7829 H          1  LIG1   0.0900
     37 H12       -14.9441    16.2079   -17.3876 H          1  LIG1   0.1200
     38 H13       -17.0327    15.3547   -18.5110 H          1  LIG1   0.1000
     39 H14       -17.2833    15.7828   -16.8008 H          1  LIG1   0.0900
     40 H15       -17.9154    17.5819   -19.1848 H          1  LIG1   0.1400
     41 H16       -20.5103    18.2552   -18.6455 H          1  LIG1   0.1300
     42 H17       -19.9785    17.3613   -20.0900 H          1  LIG1   0.1300
     43 H18       -21.7015    15.5119   -19.4676 H          1  LIG1   0.1300
     44 H19       -23.4279    16.1337   -17.7159 H          1  LIG1   0.1100
     45 H20       -22.4950    17.6811   -17.3458 H          1  LIG1   0.1100
     46 H21       -22.7962    18.4372   -19.7483 H          1  LIG1   0.1100
     47 H22       -23.7291    16.8899   -20.1183 H          1  LIG1   0.1100
     48 H23       -19.0050    19.0037   -17.4573 H          1  LIG1   0.1000
     49 H24       -18.4247    17.8944   -16.1912 H          1  LIG1   0.0900
     50 H25       -16.8835    19.7827   -16.3502 H          1  LIG1   0.1100
     51 H26       -16.7032    19.5280   -18.1051 H          1  LIG1   0.0800
     52 H27       -12.3336    17.8402   -14.5711 H          1  LIG1   0.2000
@<TRIPOS>BOND
     1    1    2 1
     2    1   28 1
     3    1   29 1
     4    1   30 1
     5    2    7 ar
     6    2    3 ar
     7    3    4 ar
     8    3   31 1
     9    4    5 ar
    10    4   32 1
    11    5    6 ar
    12    5   33 1
    13    6    7 ar
    14    6   34 1
    15    7    8 1
    16    8   27 1
    17    8    9 1
    18    9   10 2
    19    9   35 1
    20   10   11 1
    21   10   26 1
    22   11   12 2
    23   11   13 am
    24   13   25 1
    25   13   14 1
    26   14   15 1
    27   14   36 1
    28   14   37 1
    29   15   16 1
    30   15   38 1
    31   15   39 1
    32   16   17 1
    33   16   24 1
    34   16   40 1
    35   17   18 1
    36   17   19 1
    37   17   20 1
    38   20   21 1
    39   20   41 1
    40   20   42 1
    41   21   23 1
    42   21   22 1
    43   21   43 1
    44   22   23 1
    45   22   44 1
    46   22   45 1
    47   23   46 1
    48   23   47 1
    49   24   25 1
    50   24   48 1
    51   24   49 1
    52   25   50 1
    53   25   51 1
    54   26   27 2
    55   26   52 1
##########                 Name:     ZINC000366665986
##########          Protonation:                 none
##########               SMILES:   COC1=CC=CC=C1CNC(=O)[C@@H](C)[NH+]1CCC2(CC2)CC1
##########            Long Name:   NO_LONG_NAME
##########          FlexRecCode: 1
##########               Number:                11252
##########   Ligand Source File: /nfs/db/export/3D/DF/ADRO/DFADRO.xauo.db2.gz
##########                 Rank:                    1
##########               Setnum:                  142
##########             Matchnum:                    1
##########                Cloud:                    1
##########        Electrostatic:           -43.740231
##########                 Gist:             0.000000
##########        Van der Waals:           -27.416056
##########  Ligand Polar Desolv:            12.038688
########## Ligand Apolar Desolv:            -4.847682
##########      Internal Energy:             0.000000
##########      Receptor Energy:             0.000000
########## Receptor Desolvation:             0.000000
########## Receptor Hydrophobic:             0.000000
##########         Total Energy:           -63.965282
##########        Ligand Charge:             1.000000
##########            Arbitrary:    +999.9990
##########        Ligand Energy:             0.000000

@<TRIPOS>MOLECULE
 ZINC000366665986      none
   49    51     0     0     0



@<TRIPOS>ATOM
      1 C1        -15.7138    11.6779   -14.1439 C.3        1  LIG1   0.0200
      2 O1        -16.1018    13.0384   -14.3449 O.3        1  LIG1  -0.3200
      3 C2        -15.1079    13.9648   -14.3792 C.ar       1  LIG1   0.1500
      4 C3        -13.7863    13.5714   -14.2289 C.ar       1  LIG1  -0.2100
      5 C4        -12.7776    14.5150   -14.2647 C.ar       1  LIG1  -0.0600
      6 C5        -13.0847    15.8501   -14.4499 C.ar       1  LIG1  -0.1600
      7 C6        -14.4016    16.2448   -14.5998 C.ar       1  LIG1  -0.0600
      8 C7        -15.4130    15.3046   -14.5709 C.ar       1  LIG1  -0.1600
      9 C8        -16.8478    15.7354   -14.7347 C.3        1  LIG1   0.1700
     10 N1        -17.2085    15.7034   -16.1543 N.am       1  LIG1  -0.6900
     11 C9        -17.0285    16.7977   -16.9201 C.2        1  LIG1   0.5000
     12 O2        -16.5681    17.8090   -16.4340 O.2        1  LIG1  -0.5300
     13 C10       -17.3994    16.7647   -18.3804 C.3        1  LIG1   0.0000
     14 H1        -17.1844    17.7333   -18.8319 H          1  LIG1   0.1600
     15 C11       -16.5859    15.6798   -19.0888 C.3        1  LIG1  -0.1800
     16 N2        -18.8320    16.4690   -18.5151 N.4        1  LIG1  -0.3600
     17 H2        -19.0291    15.5723   -18.0966 H          1  LIG1   0.4300
     18 C12       -19.1889    16.4305   -19.9381 C.3        1  LIG1  -0.0200
     19 C13       -20.6416    15.9664   -20.0894 C.3        1  LIG1  -0.1000
     20 C14       -21.5404    16.9028   -19.2750 C.3        1  LIG1  -0.1700
     21 C15       -22.1909    18.0778   -20.0026 C.3        1  LIG1  -0.1700
     22 C16       -23.0400    16.8824   -19.5633 C.3        1  LIG1  -0.1500
     23 C17       -21.0923    17.1184   -17.8257 C.3        1  LIG1  -0.1000
     24 C18       -19.6095    17.5073   -17.8288 C.3        1  LIG1  -0.0100
     25 H3        -16.6009    11.0444   -14.1372 H          1  LIG1   0.1000
     26 H4        -15.0508    11.3662   -14.9510 H          1  LIG1   0.0600
     27 H5        -15.1940    11.5853   -13.1904 H          1  LIG1   0.0600
     28 H6        -13.5459    12.5287   -14.0834 H          1  LIG1   0.1300
     29 H7        -11.7485    14.2094   -14.1476 H          1  LIG1   0.1300
     30 H8        -12.2949    16.5862   -14.4773 H          1  LIG1   0.1300
     31 H9        -14.6390    17.2885   -14.7440 H          1  LIG1   0.1300
     32 H10       -17.4963    15.0576   -14.1797 H          1  LIG1   0.0900
     33 H11       -16.9690    16.7488   -14.3518 H          1  LIG1   0.0900
     34 H12       -17.5768    14.8945   -16.5429 H          1  LIG1   0.4100
     35 H13       -16.8541    15.6560   -20.1450 H          1  LIG1   0.1100
     36 H14       -15.5230    15.8992   -18.9889 H          1  LIG1   0.0900
     37 H15       -16.8010    14.7113   -18.6374 H          1  LIG1   0.1000
     38 H16       -19.0792    17.4265   -20.3670 H          1  LIG1   0.1300
     39 H17       -18.5297    15.7362   -20.4591 H          1  LIG1   0.1500
     40 H18       -20.9303    16.0040   -21.1399 H          1  LIG1   0.1100
     41 H19       -20.7411    14.9472   -19.7160 H          1  LIG1   0.0900
     42 H20       -22.3088    19.0094   -19.4494 H          1  LIG1   0.1000
     43 H21       -21.9866    18.1857   -21.0679 H          1  LIG1   0.1000
     44 H22       -23.3942    16.2041   -20.3396 H          1  LIG1   0.1000
     45 H23       -23.7166    17.0279   -18.7211 H          1  LIG1   0.1000
     46 H24       -21.6796    17.9191   -17.3764 H          1  LIG1   0.1100
     47 H25       -21.2302    16.1975   -17.2591 H          1  LIG1   0.0900
     48 H26       -19.2567    17.6018   -16.8018 H          1  LIG1   0.1300
     49 H27       -19.4849    18.4594   -18.3444 H          1  LIG1   0.1300
@<TRIPOS>BOND
     1    1    2 1
     2    1   25 1
     3    1   26 1
     4    1   27 1
     5    2    3 1
     6    3    8 ar
     7    3    4 ar
     8    4    5 ar
     9    4   28 1
    10    5    6 ar
    11    5   29 1
    12    6    7 ar
    13    6   30 1
    14    7    8 ar
    15    7   31 1
    16    8    9 1
    17    9   10 1
    18    9   32 1
    19    9   33 1
    20   10   11 am
    21   10   34 1
    22   11   12 2
    23   11   13 1
    24   13   14 1
    25   13   15 1
    26   13   16 1
    27   15   35 1
    28   15   36 1
    29   15   37 1
    30   16   17 1
    31   16   24 1
    32   16   18 1
    33   18   19 1
    34   18   38 1
    35   18   39 1
    36   19   20 1
    37   19   40 1
    38   19   41 1
    39   20   22 1
    40   20   21 1
    41   20   23 1
    42   21   22 1
    43   21   42 1
    44   21   43 1
    45   22   44 1
    46   22   45 1
    47   23   24 1
    48   23   46 1
    49   23   47 1
    50   24   48 1
    51   24   49 1
##########                 Name:     ZINC000112398786
##########          Protonation:                 none
##########               SMILES:   CC1=CC=CC=C1[C@H](O)CNC(=O)[C@@H](C1=CC=CC=C1)[NH+](C)C
##########            Long Name:   NO_LONG_NAME
##########          FlexRecCode: 1
##########               Number:                 4447
##########   Ligand Source File: /nfs/db/export/3D/DE/ADMO/DEADMO.xbbl.db2.gz
##########                 Rank:                    1
##########               Setnum:                  104
##########             Matchnum:                    1
##########                Cloud:                    1
##########        Electrostatic:           -44.291840
##########                 Gist:             0.000000
##########        Van der Waals:           -32.258663
##########  Ligand Polar Desolv:            15.297047
########## Ligand Apolar Desolv:            -4.021390
##########      Internal Energy:             0.000000
##########      Receptor Energy:             0.000000
########## Receptor Desolvation:             0.000000
########## Receptor Hydrophobic:             0.000000
##########         Total Energy:           -65.274849
##########        Ligand Charge:             1.000000
##########            Arbitrary:    +999.9990
##########        Ligand Energy:             0.000000

@<TRIPOS>MOLECULE
 ZINC000112398786      none
   48    49     0     0     0



@<TRIPOS>ATOM
      1 C1        -15.8137    13.2201   -14.2434 C.3        1  LIG1  -0.1200
      2 C2        -14.9005    14.4060   -14.0677 C.ar       1  LIG1  -0.0700
      3 C3        -13.9424    14.3988   -13.0716 C.ar       1  LIG1  -0.1200
      4 C4        -13.1047    15.4869   -12.9105 C.ar       1  LIG1  -0.1000
      5 C5        -13.2251    16.5815   -13.7456 C.ar       1  LIG1  -0.1200
      6 C6        -14.1830    16.5883   -14.7426 C.ar       1  LIG1  -0.1000
      7 C7        -15.0176    15.4988   -14.9065 C.ar       1  LIG1  -0.1300
      8 C8        -16.0617    15.5062   -15.9932 C.3        1  LIG1   0.1400
      9 H1        -16.6241    14.5730   -15.9631 H          1  LIG1   0.1200
     10 O1        -15.4242    15.6373   -17.2654 O.3        1  LIG1  -0.5500
     11 C9        -17.0149    16.6832   -15.7766 C.3        1  LIG1   0.0900
     12 N1        -18.0299    16.6903   -16.8330 N.am       1  LIG1  -0.6900
     13 C10       -18.5734    17.8555   -17.2375 C.2        1  LIG1   0.5100
     14 O2        -18.2222    18.8980   -16.7269 O.2        1  LIG1  -0.5200
     15 C11       -19.6175    17.8629   -18.3241 C.3        1  LIG1   0.0600
     16 H2        -20.2966    18.7013   -18.1697 H          1  LIG1   0.1600
     17 C12       -18.9453    18.0015   -19.6658 C.ar       1  LIG1  -0.1500
     18 C13       -19.5994    18.6375   -20.7042 C.ar       1  LIG1  -0.1100
     19 C14       -18.9829    18.7647   -21.9348 C.ar       1  LIG1  -0.1000
     20 C15       -17.7118    18.2562   -22.1269 C.ar       1  LIG1  -0.0800
     21 C16       -17.0573    17.6209   -21.0882 C.ar       1  LIG1  -0.1000
     22 C17       -17.6722    17.4975   -19.8564 C.ar       1  LIG1  -0.0900
     23 N2        -20.3752    16.6050   -18.2837 N.4        1  LIG1  -0.3700
     24 H3        -19.7466    15.8290   -18.4266 H          1  LIG1   0.4300
     25 C18       -21.0304    16.4700   -16.9759 C.3        1  LIG1  -0.0600
     26 C19       -21.3930    16.6123   -19.3429 C.3        1  LIG1  -0.0500
     27 H4        -15.5739    12.4631   -13.4967 H          1  LIG1   0.0800
     28 H5        -16.8491    13.5372   -14.1196 H          1  LIG1   0.0700
     29 H6        -15.6785    12.8020   -15.2409 H          1  LIG1   0.0600
     30 H7        -13.8483    13.5435   -12.4191 H          1  LIG1   0.1300
     31 H8        -12.3565    15.4816   -12.1316 H          1  LIG1   0.1300
     32 H9        -12.5712    17.4317   -13.6193 H          1  LIG1   0.1300
     33 H10       -14.2773    17.4438   -15.3950 H          1  LIG1   0.1200
     34 H11       -16.0374    15.6494   -18.0131 H          1  LIG1   0.3800
     35 H12       -17.5012    16.5831   -14.8062 H          1  LIG1   0.0900
     36 H13       -16.4527    17.6165   -15.8067 H          1  LIG1   0.0900
     37 H14       -18.3107    15.8566   -17.2415 H          1  LIG1   0.4100
     38 H15       -20.5924    19.0348   -20.5541 H          1  LIG1   0.1200
     39 H16       -19.4942    19.2610   -22.7463 H          1  LIG1   0.1400
     40 H17       -17.2304    18.3549   -23.0886 H          1  LIG1   0.1400
     41 H18       -16.0644    17.2234   -21.2384 H          1  LIG1   0.1400
     42 H19       -17.1608    17.0014   -19.0448 H          1  LIG1   0.1400
     43 H20       -21.5926    15.5368   -16.9458 H          1  LIG1   0.1200
     44 H21       -20.2751    16.4648   -16.1899 H          1  LIG1   0.1300
     45 H22       -21.7096    17.3084   -16.8214 H          1  LIG1   0.1300
     46 H23       -21.9552    15.6790   -19.3128 H          1  LIG1   0.1300
     47 H24       -22.0724    17.4507   -19.1883 H          1  LIG1   0.1300
     48 H25       -20.9070    16.7127   -20.3133 H          1  LIG1   0.1300
@<TRIPOS>BOND
     1    1    2 1
     2    1   27 1
     3    1   28 1
     4    1   29 1
     5    2    7 ar
     6    2    3 ar
     7    3    4 ar
     8    3   30 1
     9    4    5 ar
    10    4   31 1
    11    5    6 ar
    12    5   32 1
    13    6    7 ar
    14    6   33 1
    15    7    8 1
    16    8    9 1
    17    8   10 1
    18    8   11 1
    19   10   34 1
    20   11   12 1
    21   11   35 1
    22   11   36 1
    23   12   13 am
    24   12   37 1
    25   13   14 2
    26   13   15 1
    27   15   16 1
    28   15   17 1
    29   15   23 1
    30   17   22 ar
    31   17   18 ar
    32   18   19 ar
    33   18   38 1
    34   19   20 ar
    35   19   39 1
    36   20   21 ar
    37   20   40 1
    38   21   22 ar
    39   21   41 1
    40   22   42 1
    41   23   24 1
    42   23   25 1
    43   23   26 1
    44   25   43 1
    45   25   44 1
    46   25   45 1
    47   26   46 1
    48   26   47 1
    49   26   48 1
##########                 Name:     ZINC000293289401
##########          Protonation:                 none
##########               SMILES:   CN1N=CC(CNC2=CC=CC(NC(=O)C[NH+]3CCCCCC3)=C2)=N1
##########            Long Name:   NO_LONG_NAME
##########          FlexRecCode: 1
##########               Number:                12185
##########   Ligand Source File: /nfs/db/export/3D/EE/ADRO/EEADRO.xaru.db2.gz
##########                 Rank:                    1
##########               Setnum:                   35
##########             Matchnum:                    1
##########                Cloud:                    1
##########        Electrostatic:           -43.926128
##########                 Gist:             0.000000
##########        Van der Waals:           -32.595730
##########  Ligand Polar Desolv:            16.203249
########## Ligand Apolar Desolv:            -3.043862
##########      Internal Energy:             0.000000
##########      Receptor Energy:             0.000000
########## Receptor Desolvation:             0.000000
########## Receptor Hydrophobic:             0.000000
##########         Total Energy:           -63.362473
##########        Ligand Charge:             1.000000
##########            Arbitrary:    +999.9990
##########        Ligand Energy:             0.000000

@<TRIPOS>MOLECULE
 ZINC000293289401      none
   52    54     0     0     0



@<TRIPOS>ATOM
      1 C1        -10.7758    23.1053   -15.0681 C.3        1  LIG1   0.1000
      2 N1        -11.2571    21.7220   -15.1030 N.pl3      1  LIG1  -0.1500
      3 N2        -10.5268    20.6885   -14.8744 N.2        1  LIG1  -0.2800
      4 C2        -11.2717    19.6124   -14.9883 C.2        1  LIG1  -0.0100
      5 C3        -12.5523    20.0660   -15.3130 C.2        1  LIG1  -0.0300
      6 C4        -13.7799    19.2253   -15.5519 C.3        1  LIG1   0.2200
      7 N3        -13.8784    18.1979   -14.5122 N.pl3      1  LIG1  -0.7400
      8 C5        -14.4802    16.9704   -14.7980 C.ar       1  LIG1   0.2400
      9 C6        -14.2264    15.8670   -13.9926 C.ar       1  LIG1  -0.2000
     10 C7        -14.8214    14.6524   -14.2749 C.ar       1  LIG1  -0.0500
     11 C8        -15.6698    14.5306   -15.3582 C.ar       1  LIG1  -0.1900
     12 C9        -15.9279    15.6302   -16.1676 C.ar       1  LIG1   0.1700
     13 N4        -16.7877    15.5058   -17.2645 N.am       1  LIG1  -0.6400
     14 C10       -16.6066    16.2787   -18.3537 C.2        1  LIG1   0.5000
     15 O1        -15.6982    17.0818   -18.3832 O.2        1  LIG1  -0.5100
     16 C11       -17.5327    16.1448   -19.5350 C.3        1  LIG1  -0.0300
     17 N5        -18.9467    16.4490   -19.1031 N.4        1  LIG1  -0.3700
     18 H1        -19.1832    15.7542   -18.3619 H          1  LIG1   0.4300
     19 C12       -19.9325    16.2280   -20.2274 C.3        1  LIG1  -0.0200
     20 C13       -21.2014    15.5808   -19.6850 C.3        1  LIG1  -0.1400
     21 C14       -22.0947    16.4902   -18.8467 C.3        1  LIG1  -0.1300
     22 C15       -21.4061    17.1893   -17.6761 C.3        1  LIG1  -0.1300
     23 C16       -20.4332    18.2719   -18.1331 C.3        1  LIG1  -0.1400
     24 C17       -19.0179    17.8042   -18.4500 C.3        1  LIG1   0.0000
     25 C18       -15.3371    16.8526   -15.8837 C.ar       1  LIG1  -0.1900
     26 N6        -12.4685    21.3763   -15.3610 N.2        1  LIG1  -0.2700
     27 H2         -9.7131    23.1143   -14.8258 H          1  LIG1   0.0900
     28 H3        -10.9302    23.5685   -16.0427 H          1  LIG1   0.1100
     29 H4        -11.3261    23.6625   -14.3099 H          1  LIG1   0.1100
     30 H5        -10.9584    18.5871   -14.8575 H          1  LIG1   0.2000
     31 H6        -14.6661    19.8593   -15.5211 H          1  LIG1   0.0800
     32 H7        -13.7086    18.7477   -16.5292 H          1  LIG1   0.0900
     33 H8        -13.5255    18.3702   -13.6252 H          1  LIG1   0.4000
     34 H9        -13.5630    15.9588   -13.1454 H          1  LIG1   0.1300
     35 H10       -14.6225    13.7962   -13.6474 H          1  LIG1   0.1300
     36 H11       -16.1328    13.5796   -15.5765 H          1  LIG1   0.1300
     37 H12       -17.5142    14.8636   -17.2409 H          1  LIG1   0.4200
     38 H13       -17.2318    16.8456   -20.3137 H          1  LIG1   0.1600
     39 H14       -17.4822    15.1273   -19.9227 H          1  LIG1   0.1600
     40 H15       -20.1790    17.1778   -20.6573 H          1  LIG1   0.1300
     41 H16       -19.4863    15.5747   -20.9496 H          1  LIG1   0.1400
     42 H17       -21.7840    15.1751   -20.5528 H          1  LIG1   0.1100
     43 H18       -20.9045    14.6834   -19.0821 H          1  LIG1   0.0800
     44 H19       -22.5258    17.2820   -19.4757 H          1  LIG1   0.0700
     45 H20       -22.9291    15.9143   -18.4217 H          1  LIG1   0.0800
     46 H21       -22.1905    17.6185   -17.0588 H          1  LIG1   0.0900
     47 H22       -20.8834    16.4213   -17.1128 H          1  LIG1   0.0700
     48 H23       -20.8424    18.7863   -19.0445 H          1  LIG1   0.0900
     49 H24       -20.3682    19.0754   -17.3503 H          1  LIG1   0.1100
     50 H25       -18.4469    17.7700   -17.5224 H          1  LIG1   0.1300
     51 H26       -18.5536    18.5285   -19.1189 H          1  LIG1   0.1300
     52 H27       -15.5361    17.7087   -16.5113 H          1  LIG1   0.1300
@<TRIPOS>BOND
     1    1    2 1
     2    1   27 1
     3    1   28 1
     4    1   29 1
     5    2   26 1
     6    2    3 1
     7    3    4 2
     8    4    5 1
     9    4   30 1
    10    5    6 1
    11    5   26 2
    12    6    7 1
    13    6   31 1
    14    6   32 1
    15    7    8 1
    16    7   33 1
    17    8   25 ar
    18    8    9 ar
    19    9   10 ar
    20    9   34 1
    21   10   11 ar
    22   10   35 1
    23   11   12 ar
    24   11   36 1
    25   12   13 1
    26   12   25 ar
    27   13   14 am
    28   13   37 1
    29   14   15 2
    30   14   16 1
    31   16   17 1
    32   16   38 1
    33   16   39 1
    34   17   18 1
    35   17   24 1
    36   17   19 1
    37   19   20 1
    38   19   40 1
    39   19   41 1
    40   20   21 1
    41   20   42 1
    42   20   43 1
    43   21   22 1
    44   21   44 1
    45   21   45 1
    46   22   23 1
    47   22   46 1
    48   22   47 1
    49   23   24 1
    50   23   48 1
    51   23   49 1
    52   24   50 1
    53   24   51 1
    54   25   52 1
##########                 Name:     ZINC000279818441
##########          Protonation:                 none
##########               SMILES:   OC[C@@H](CC1CCC1)[NH2+]CC1=CN(C2=CC=CC=C2)N=C1
##########            Long Name:   NO_LONG_NAME
##########          FlexRecCode: 1
##########               Number:                 7038
##########   Ligand Source File: /nfs/db/export/3D/CF/ADRO/CFADRO.xckt.db2.gz
##########                 Rank:                    1
##########               Setnum:                  355
##########             Matchnum:                    1
##########                Cloud:                    1
##########        Electrostatic:           -42.804619
##########                 Gist:             0.000000
##########        Van der Waals:           -30.056925
##########  Ligand Polar Desolv:            14.013027
########## Ligand Apolar Desolv:            -4.716057
##########      Internal Energy:             0.000000
##########      Receptor Energy:             0.000000
########## Receptor Desolvation:             0.000000
########## Receptor Hydrophobic:             0.000000
##########         Total Energy:           -63.564571
##########        Ligand Charge:             1.000000
##########            Arbitrary:    +999.9990
##########        Ligand Energy:             0.000000

@<TRIPOS>MOLECULE
 ZINC000279818441      none
   45    47     0     0     0



@<TRIPOS>ATOM
      1 O1        -17.1071    17.0015   -20.8115 O.3        1  LIG1  -0.5800
      2 C1        -18.2398    16.2243   -20.4175 C.3        1  LIG1   0.0500
      3 C2        -18.8992    16.8674   -19.1958 C.3        1  LIG1   0.0300
      4 H1        -18.8992    17.9513   -19.3113 H          1  LIG1   0.1500
      5 C3        -20.3400    16.3677   -19.0717 C.3        1  LIG1  -0.1300
      6 C4        -21.2334    17.1409   -20.0437 C.3        1  LIG1  -0.1300
      7 C5        -22.7198    17.1381   -19.6492 C.3        1  LIG1  -0.1400
      8 C6        -22.7584    18.6112   -20.0890 C.3        1  LIG1  -0.1500
      9 C7        -21.2504    18.6578   -19.7911 C.3        1  LIG1  -0.1300
     10 N1        -18.1489    16.5039   -17.9863 N.4        1  LIG1  -0.5100
     11 H2        -18.5837    16.9280   -17.1806 H          1  LIG1   0.4200
     12 H3        -18.1489    15.5006   -17.8793 H          1  LIG1   0.4300
     13 C8        -16.7656    16.9838   -18.1055 C.3        1  LIG1   0.0800
     14 C9        -15.9959    16.6109   -16.8648 C.2        1  LIG1  -0.3100
     15 C10       -16.0136    15.4060   -16.2489 C.2        1  LIG1   0.1000
     16 N2        -15.1926    15.4797   -15.1770 N.pl3      1  LIG1  -0.2900
     17 C11       -14.9264    14.4454   -14.2690 C.ar       1  LIG1   0.1300
     18 C12       -14.0623    14.6602   -13.2037 C.ar       1  LIG1  -0.1300
     19 C13       -13.8021    13.6392   -12.3107 C.ar       1  LIG1  -0.0900
     20 C14       -14.4007    12.4039   -12.4771 C.ar       1  LIG1  -0.1100
     21 C15       -15.2617    12.1869   -13.5371 C.ar       1  LIG1  -0.0900
     22 C16       -15.5307    13.2059   -14.4299 C.ar       1  LIG1  -0.1100
     23 N3        -14.6543    16.7723   -15.1351 N.2        1  LIG1  -0.2700
     24 C17       -15.1321    17.4475   -16.1495 C.2        1  LIG1   0.0800
     25 H4        -16.6390    16.6517   -21.5820 H          1  LIG1   0.4100
     26 H5        -18.9561    16.1842   -21.2381 H          1  LIG1   0.0700
     27 H6        -17.9175    15.2137   -20.1667 H          1  LIG1   0.0900
     28 H7        -20.3778    15.3049   -19.3103 H          1  LIG1   0.1100
     29 H8        -20.6921    16.5239   -18.0520 H          1  LIG1   0.1000
     30 H9        -21.0563    16.8736   -21.0854 H          1  LIG1   0.0800
     31 H10       -23.3341    16.4821   -20.2661 H          1  LIG1   0.0700
     32 H11       -22.8880    16.9967   -18.5815 H          1  LIG1   0.0900
     33 H12       -22.9995    18.7459   -21.1435 H          1  LIG1   0.0800
     34 H13       -23.3527    19.2473   -19.4331 H          1  LIG1   0.0800
     35 H14       -21.0168    18.9318   -18.7623 H          1  LIG1   0.0900
     36 H15       -20.6783    19.2286   -20.5225 H          1  LIG1   0.0700
     37 H16       -16.2958    16.5255   -18.9758 H          1  LIG1   0.1400
     38 H17       -16.7656    18.0675   -18.2211 H          1  LIG1   0.1300
     39 H18       -16.5821    14.5413   -16.5577 H          1  LIG1   0.1900
     40 H19       -13.5940    15.6246   -13.0736 H          1  LIG1   0.1300
     41 H20       -13.1300    13.8057   -11.4818 H          1  LIG1   0.1400
     42 H21       -14.1950    11.6067   -11.7780 H          1  LIG1   0.1400
     43 H22       -15.7278    11.2209   -13.6645 H          1  LIG1   0.1400
     44 H23       -16.2036    13.0359   -15.2574 H          1  LIG1   0.1400
     45 H24       -14.9034    18.4754   -16.3896 H          1  LIG1   0.2000
@<TRIPOS>BOND
     1    1    2 1
     2    1   25 1
     3    2    3 1
     4    2   26 1
     5    2   27 1
     6    3    4 1
     7    3    5 1
     8    3   10 1
     9    5    6 1
    10    5   28 1
    11    5   29 1
    12    6    9 1
    13    6    7 1
    14    6   30 1
    15    7    8 1
    16    7   31 1
    17    7   32 1
    18    8    9 1
    19    8   33 1
    20    8   34 1
    21    9   35 1
    22    9   36 1
    23   10   11 1
    24   10   12 1
    25   10   13 1
    26   13   14 1
    27   13   37 1
    28   13   38 1
    29   14   24 1
    30   14   15 2
    31   15   16 1
    32   15   39 1
    33   16   17 1
    34   16   23 1
    35   17   22 ar
    36   17   18 ar
    37   18   19 ar
    38   18   40 1
    39   19   20 ar
    40   19   41 1
    41   20   21 ar
    42   20   42 1
    43   21   22 ar
    44   21   43 1
    45   22   44 1
    46   23   24 2
    47   24   45 1
##########                 Name:     ZINC000304571498
##########          Protonation:                 none
##########               SMILES:   CC1=NN(C2=CC=CC=C2)C=C1C[NH2+]C[C@@]1(O)CCSC1
##########            Long Name:   NO_LONG_NAME
##########          FlexRecCode: 1
##########               Number:                 2803
##########   Ligand Source File: /nfs/db/export/3D/DE/ADRO/DEADRO.xbwc.db2.gz
##########                 Rank:                    1
##########               Setnum:                   34
##########             Matchnum:                    1
##########                Cloud:                    1
##########        Electrostatic:           -44.654625
##########                 Gist:             0.000000
##########        Van der Waals:           -31.064819
##########  Ligand Polar Desolv:            14.442257
########## Ligand Apolar Desolv:            -4.003405
##########      Internal Energy:             0.000000
##########      Receptor Energy:             0.000000
########## Receptor Desolvation:             0.000000
########## Receptor Hydrophobic:             0.000000
##########         Total Energy:           -65.280594
##########        Ligand Charge:             1.000000
##########            Arbitrary:    +999.9990
##########        Ligand Energy:             0.000000

@<TRIPOS>MOLECULE
 ZINC000304571498      none
   43    45     0     0     0



@<TRIPOS>ATOM
      1 C1        -14.6436    18.6571   -16.3134 C.3        1  LIG1  -0.0900
      2 C2        -15.0680    17.2242   -16.1189 C.2        1  LIG1   0.1000
      3 N1        -14.6267    16.4127   -15.1919 N.2        1  LIG1  -0.2700
      4 N2        -15.2658    15.1764   -15.3516 N.pl3      1  LIG1  -0.2900
      5 C3        -15.0700    14.0377   -14.5576 C.ar       1  LIG1   0.1300
      6 C4        -15.7689    12.8698   -14.8321 C.ar       1  LIG1  -0.1300
      7 C5        -15.5739    11.7496   -14.0480 C.ar       1  LIG1  -0.0900
      8 C6        -14.6841    11.7906   -12.9904 C.ar       1  LIG1  -0.1100
      9 C7        -13.9870    12.9524   -12.7142 C.ar       1  LIG1  -0.0900
     10 C8        -14.1728    14.0739   -13.4988 C.ar       1  LIG1  -0.1100
     11 C9        -16.1053    15.2759   -16.4071 C.2        1  LIG1   0.1100
     12 C10       -16.0058    16.5341   -16.8950 C.2        1  LIG1  -0.3200
     13 C11       -16.7637    17.0909   -18.0725 C.3        1  LIG1   0.0900
     14 N3        -18.1782    16.7078   -17.9697 N.4        1  LIG1  -0.5100
     15 H1        -18.2546    15.7016   -17.9658 H          1  LIG1   0.4200
     16 H2        -18.5657    17.0778   -17.1148 H          1  LIG1   0.4300
     17 C12       -18.9171    17.2505   -19.1174 C.3        1  LIG1   0.0100
     18 C13       -20.3904    16.8514   -19.0105 C.3        1  LIG1   0.1100
     19 O1        -20.5014    15.4268   -18.9965 O.3        1  LIG1  -0.5500
     20 C14       -20.9879    17.4249   -17.7138 C.3        1  LIG1  -0.1500
     21 C15       -22.5280    17.2744   -17.8218 C.3        1  LIG1  -0.0900
     22 S1        -22.8447    17.7652   -19.5609 S.3        1  LIG1  -0.2300
     23 C16       -21.1694    17.4199   -20.2145 C.3        1  LIG1  -0.1500
     24 H3        -13.9006    18.9213   -15.5610 H          1  LIG1   0.1000
     25 H4        -14.2126    18.7769   -17.3073 H          1  LIG1   0.0900
     26 H5        -15.5109    19.3097   -16.2124 H          1  LIG1   0.0700
     27 H6        -16.4644    12.8374   -15.6576 H          1  LIG1   0.1300
     28 H7        -16.1172    10.8408   -14.2611 H          1  LIG1   0.1400
     29 H8        -14.5336    10.9135   -12.3784 H          1  LIG1   0.1400
     30 H9        -13.2932    12.9816   -11.8870 H          1  LIG1   0.1400
     31 H10       -13.6280    14.9810   -13.2827 H          1  LIG1   0.1400
     32 H11       -16.7440    14.4933   -16.7890 H          1  LIG1   0.1900
     33 H12       -16.6813    18.1779   -18.0766 H          1  LIG1   0.1400
     34 H13       -16.3452    16.6912   -18.9960 H          1  LIG1   0.1400
     35 H14       -18.8346    18.3374   -19.1217 H          1  LIG1   0.1500
     36 H15       -18.4985    16.8507   -20.0411 H          1  LIG1   0.1500
     37 H16       -20.0383    15.0033   -18.2610 H          1  LIG1   0.4100
     38 H17       -20.6183    16.8655   -16.8544 H          1  LIG1   0.1100
     39 H18       -20.7225    18.4775   -17.6152 H          1  LIG1   0.1000
     40 H19       -22.8301    16.2416   -17.6488 H          1  LIG1   0.1000
     41 H20       -23.0332    17.9488   -17.1303 H          1  LIG1   0.1200
     42 H21       -20.7031    18.3390   -20.5693 H          1  LIG1   0.1100
     43 H22       -21.2189    16.6838   -21.0169 H          1  LIG1   0.1100
@<TRIPOS>BOND
     1    1    2 1
     2    1   24 1
     3    1   25 1
     4    1   26 1
     5    2   12 1
     6    2    3 2
     7    3    4 1
     8    4    5 1
     9    4   11 1
    10    5   10 ar
    11    5    6 ar
    12    6    7 ar
    13    6   27 1
    14    7    8 ar
    15    7   28 1
    16    8    9 ar
    17    8   29 1
    18    9   10 ar
    19    9   30 1
    20   10   31 1
    21   11   12 2
    22   11   32 1
    23   12   13 1
    24   13   14 1
    25   13   33 1
    26   13   34 1
    27   14   15 1
    28   14   16 1
    29   14   17 1
    30   17   18 1
    31   17   35 1
    32   17   36 1
    33   18   23 1
    34   18   19 1
    35   18   20 1
    36   19   37 1
    37   20   21 1
    38   20   38 1
    39   20   39 1
    40   21   22 1
    41   21   40 1
    42   21   41 1
    43   22   23 1
    44   23   42 1
    45   23   43 1
##########                 Name:     ZINC000451420311
##########          Protonation:                 none
##########               SMILES:   CC1=CC=C(CNC(=O)C[N@H+]2CC[C@@H](C(F)(F)F)C[C@H]2C)C=C1F
##########            Long Name:   NO_LONG_NAME
##########          FlexRecCode: 1
##########               Number:                 9937
##########   Ligand Source File: /nfs/db/export/3D/EG/ADMO/EGADMO.xaku.db2.gz
##########                 Rank:                    1
##########               Setnum:                  106
##########             Matchnum:                    1
##########                Cloud:                    1
##########        Electrostatic:           -49.147629
##########                 Gist:             0.000000
##########        Van der Waals:           -30.177170
##########  Ligand Polar Desolv:            16.500061
########## Ligand Apolar Desolv:            -5.400056
##########      Internal Energy:             0.000000
##########      Receptor Energy:             0.000000
########## Receptor Desolvation:             0.000000
########## Receptor Hydrophobic:             0.000000
##########         Total Energy:           -68.224792
##########        Ligand Charge:             1.000000
##########            Arbitrary:    +999.9990
##########        Ligand Energy:             0.000000

@<TRIPOS>MOLECULE
 ZINC000451420311      none
   47    48     0     0     0



@<TRIPOS>ATOM
      1 C1        -14.4005    12.4882   -12.5843 C.3        1  LIG1  -0.1200
      2 C2        -14.7940    13.4963   -13.6332 C.ar       1  LIG1  -0.1000
      3 C3        -14.3067    14.7875   -13.5680 C.ar       1  LIG1  -0.0900
      4 C4        -14.6675    15.7126   -14.5301 C.ar       1  LIG1  -0.1000
      5 C5        -15.5165    15.3470   -15.5578 C.ar       1  LIG1  -0.1100
      6 C6        -15.9094    16.3566   -16.6055 C.3        1  LIG1   0.1600
      7 N1        -17.3513    16.2709   -16.8499 N.am       1  LIG1  -0.7000
      8 C7        -18.0368    17.3673   -17.2305 C.2        1  LIG1   0.5000
      9 O1        -17.4597    18.4248   -17.3706 O.2        1  LIG1  -0.5300
     10 C8        -19.5200    17.2792   -17.4817 C.3        1  LIG1  -0.0500
     11 N2        -19.7851    16.2829   -18.5834 N.4        1  LIG1  -0.3700
     12 H1        -19.1076    15.4647   -18.4149 H          1  LIG1   0.4400
     13 C9        -21.1618    15.6616   -18.4844 C.3        1  LIG1  -0.0100
     14 C10       -22.2331    16.6536   -18.9176 C.3        1  LIG1  -0.1500
     15 C11       -21.9725    17.1959   -20.3277 C.3        1  LIG1  -0.1500
     16 H2        -22.0640    16.3456   -21.0489 H          1  LIG1   0.1400
     17 C12       -23.0142    18.2476   -20.7046 C.3        1  LIG1   0.4600
     18 F1        -22.9556    19.3088   -19.7949 F          1  LIG1  -0.1800
     19 F2        -22.7514    18.7233   -21.9937 F          1  LIG1  -0.1700
     20 F3        -24.2897    17.6738   -20.6703 F          1  LIG1  -0.1700
     21 C13       -20.5534    17.7685   -20.4469 C.3        1  LIG1  -0.1500
     22 C14       -19.4959    16.7558   -20.0005 C.3        1  LIG1   0.0300
     23 H3        -19.5856    15.8489   -20.6546 H          1  LIG1   0.1500
     24 C15       -18.0771    17.3000   -20.1173 C.3        1  LIG1  -0.1900
     25 C16       -16.0049    14.0558   -15.6253 C.ar       1  LIG1  -0.1300
     26 C17       -15.6397    13.1271   -14.6658 C.ar       1  LIG1   0.1000
     27 F4        -16.1165    11.8648   -14.7307 F          1  LIG1  -0.1300
     28 H4        -13.7358    12.9585   -11.8596 H          1  LIG1   0.0800
     29 H5        -15.2937    12.1253   -12.0759 H          1  LIG1   0.0800
     30 H6        -13.8872    11.6517   -13.0586 H          1  LIG1   0.0800
     31 H7        -13.6438    15.0744   -12.7651 H          1  LIG1   0.1400
     32 H8        -14.2861    16.7217   -14.4785 H          1  LIG1   0.1300
     33 H9        -15.6588    17.3584   -16.2567 H          1  LIG1   0.0900
     34 H10       -15.3712    16.1487   -17.5303 H          1  LIG1   0.0900
     35 H11       -17.8128    15.4252   -16.7379 H          1  LIG1   0.4100
     36 H12       -20.0242    16.9563   -16.5708 H          1  LIG1   0.1600
     37 H13       -19.8969    18.2578   -17.7784 H          1  LIG1   0.1600
     38 H14       -21.1827    14.7799   -19.1257 H          1  LIG1   0.1400
     39 H15       -21.3237    15.3595   -17.4492 H          1  LIG1   0.1600
     40 H16       -23.2184    16.1612   -18.8973 H          1  LIG1   0.1300
     41 H17       -22.2619    17.4954   -18.2074 H          1  LIG1   0.1000
     42 H18       -20.3649    18.0536   -21.4923 H          1  LIG1   0.1300
     43 H19       -20.4749    18.6732   -19.8265 H          1  LIG1   0.1000
     44 H20       -17.8979    17.6309   -21.1404 H          1  LIG1   0.0800
     45 H21       -17.9539    18.1423   -19.4364 H          1  LIG1   0.0900
     46 H22       -17.3649    16.5166   -19.8587 H          1  LIG1   0.1100
     47 H23       -16.6682    13.7704   -16.4284 H          1  LIG1   0.1400
@<TRIPOS>BOND
     1    1    2 1
     2    1   28 1
     3    1   29 1
     4    1   30 1
     5    2   26 ar
     6    2    3 ar
     7    3    4 ar
     8    3   31 1
     9    4    5 ar
    10    4   32 1
    11    5    6 1
    12    5   25 ar
    13    6    7 1
    14    6   33 1
    15    6   34 1
    16    7    8 am
    17    7   35 1
    18    8    9 2
    19    8   10 1
    20   10   11 1
    21   10   36 1
    22   10   37 1
    23   11   12 1
    24   11   22 1
    25   11   13 1
    26   13   14 1
    27   13   38 1
    28   13   39 1
    29   14   15 1
    30   14   40 1
    31   14   41 1
    32   15   16 1
    33   15   17 1
    34   15   21 1
    35   17   18 1
    36   17   19 1
    37   17   20 1
    38   21   22 1
    39   21   42 1
    40   21   43 1
    41   22   23 1
    42   22   24 1
    43   24   44 1
    44   24   45 1
    45   24   46 1
    46   25   26 ar
    47   25   47 1
    48   26   27 1
##########                 Name:     ZINC000646139299
##########          Protonation:                 none
##########               SMILES:   O=C(C[N@@H+]1CCCC[C@H]1C1CCC1)NCC(=O)C1=CC=CC=C1
##########            Long Name:   NO_LONG_NAME
##########          FlexRecCode: 1
##########               Number:                12702
##########   Ligand Source File: /nfs/db/export/3D/DF/ADRO/DFADRO.xajm.db2.gz
##########                 Rank:                    1
##########               Setnum:                   28
##########             Matchnum:                    1
##########                Cloud:                    1
##########        Electrostatic:           -37.691269
##########                 Gist:             0.000000
##########        Van der Waals:           -31.357981
##########  Ligand Polar Desolv:            11.223419
########## Ligand Apolar Desolv:            -5.541105
##########      Internal Energy:             0.000000
##########      Receptor Energy:             0.000000
########## Receptor Desolvation:             0.000000
########## Receptor Hydrophobic:             0.000000
##########         Total Energy:           -63.366936
##########        Ligand Charge:             1.000000
##########            Arbitrary:    +999.9990
##########        Ligand Energy:             0.000000

@<TRIPOS>MOLECULE
 ZINC000646139299      none
   50    52     0     0     0



@<TRIPOS>ATOM
      1 O1        -16.7441    17.5962   -15.5846 O.2        1  LIG1  -0.5300
      2 C1        -17.3959    16.7873   -16.2106 C.2        1  LIG1   0.5100
      3 C2        -18.5462    17.2482   -17.0680 C.3        1  LIG1  -0.0400
      4 N1        -18.3004    16.8646   -18.4647 N.4        1  LIG1  -0.3600
      5 H1        -18.2148    15.8612   -18.5268 H          1  LIG1   0.4300
      6 C3        -17.0569    17.4900   -18.9306 C.3        1  LIG1  -0.0200
      7 C4        -16.7533    17.0295   -20.3578 C.3        1  LIG1  -0.1400
      8 C5        -17.9080    17.4389   -21.2768 C.3        1  LIG1  -0.1400
      9 C6        -19.2116    16.8420   -20.7392 C.3        1  LIG1  -0.1400
     10 C7        -19.4232    17.3110   -19.2981 C.3        1  LIG1   0.0400
     11 H2        -19.4837    18.3992   -19.2758 H          1  LIG1   0.1400
     12 C8        -20.7245    16.7173   -18.7549 C.3        1  LIG1  -0.1500
     13 C9        -21.5685    17.7179   -17.9478 C.3        1  LIG1  -0.1500
     14 C10       -22.8037    17.1053   -18.6292 C.3        1  LIG1  -0.1400
     15 C11       -21.8693    16.7000   -19.7815 C.3        1  LIG1  -0.1200
     16 N2        -17.0878    15.4769   -16.1439 N.am       1  LIG1  -0.7000
     17 C12       -15.9656    15.0297   -15.3152 C.3        1  LIG1   0.0700
     18 C13       -15.8340    13.5316   -15.4138 C.2        1  LIG1   0.4000
     19 O2        -16.1676    12.9594   -16.4293 O.2        1  LIG1  -0.4500
     20 C14       -15.3005    12.7633   -14.2776 C.ar       1  LIG1  -0.1800
     21 C15       -15.7146    11.4445   -14.0647 C.ar       1  LIG1  -0.0700
     22 C16       -15.2101    10.7311   -12.9980 C.ar       1  LIG1  -0.1300
     23 C17       -14.2967    11.3171   -12.1389 C.ar       1  LIG1  -0.0700
     24 C18       -13.8821    12.6217   -12.3430 C.ar       1  LIG1  -0.1300
     25 C19       -14.3726    13.3461   -13.4088 C.ar       1  LIG1  -0.0500
     26 H3        -19.4682    16.7820   -16.7203 H          1  LIG1   0.1700
     27 H4        -18.6390    18.3320   -16.9999 H          1  LIG1   0.1600
     28 H5        -17.1679    18.5743   -18.9149 H          1  LIG1   0.1200
     29 H6        -16.2367    17.2003   -18.2736 H          1  LIG1   0.1500
     30 H7        -15.8307    17.4963   -20.7025 H          1  LIG1   0.1100
     31 H8        -16.6418    15.9453   -20.3744 H          1  LIG1   0.0900
     32 H9        -17.9871    18.5258   -21.3004 H          1  LIG1   0.0800
     33 H10       -17.7231    17.0637   -22.2835 H          1  LIG1   0.1000
     34 H11       -20.0462    17.1747   -21.3565 H          1  LIG1   0.1100
     35 H12       -19.1512    15.7539   -20.7637 H          1  LIG1   0.0900
     36 H13       -20.5759    15.7626   -18.2504 H          1  LIG1   0.1100
     37 H14       -21.5349    17.5492   -16.8715 H          1  LIG1   0.0800
     38 H15       -21.3908    18.7584   -18.2200 H          1  LIG1   0.0900
     39 H16       -23.2244    16.2572   -18.0892 H          1  LIG1   0.0900
     40 H17       -23.5549    17.8416   -18.9145 H          1  LIG1   0.0800
     41 H18       -21.7739    17.4622   -20.5549 H          1  LIG1   0.0900
     42 H19       -22.0787    15.7095   -20.1854 H          1  LIG1   0.0800
     43 H20       -17.6092    14.8301   -16.6446 H          1  LIG1   0.4200
     44 H21       -15.0460    15.4989   -15.6648 H          1  LIG1   0.1200
     45 H22       -16.1454    15.3109   -14.2775 H          1  LIG1   0.1200
     46 H23       -16.4277    10.9862   -14.7338 H          1  LIG1   0.1300
     47 H24       -15.5288     9.7127   -12.8321 H          1  LIG1   0.1300
     48 H25       -13.9058    10.7535   -11.3047 H          1  LIG1   0.1300
     49 H26       -13.1690    13.0720   -11.6683 H          1  LIG1   0.1400
     50 H27       -14.0480    14.3640   -13.5668 H          1  LIG1   0.1400
@<TRIPOS>BOND
     1    1    2 2
     2    2    3 1
     3    2   16 am
     4    3    4 1
     5    3   26 1
     6    3   27 1
     7    4    5 1
     8    4   10 1
     9    4    6 1
    10    6    7 1
    11    6   28 1
    12    6   29 1
    13    7    8 1
    14    7   30 1
    15    7   31 1
    16    8    9 1
    17    8   32 1
    18    8   33 1
    19    9   10 1
    20    9   34 1
    21    9   35 1
    22   10   11 1
    23   10   12 1
    24   12   15 1
    25   12   13 1
    26   12   36 1
    27   13   14 1
    28   13   37 1
    29   13   38 1
    30   14   15 1
    31   14   39 1
    32   14   40 1
    33   15   41 1
    34   15   42 1
    35   16   17 1
    36   16   43 1
    37   17   18 1
    38   17   44 1
    39   17   45 1
    40   18   19 2
    41   18   20 1
    42   20   25 ar
    43   20   21 ar
    44   21   22 ar
    45   21   46 1
    46   22   23 ar
    47   22   47 1
    48   23   24 ar
    49   23   48 1
    50   24   25 ar
    51   24   49 1
    52   25   50 1
##########                 Name:     ZINC000644817849
##########          Protonation:                 none
##########               SMILES:   CC1=CC=C(C2=NNC(C(=O)N3CC[C@H]4C[N@H+](C)C[C@H]43)=C2)C(C)=C1
##########            Long Name:   NO_LONG_NAME
##########          FlexRecCode: 1
##########               Number:                10544
##########   Ligand Source File: /nfs/db/export/3D/DE/ADMO/DEADMO.xajh.db2.gz
##########                 Rank:                    1
##########               Setnum:                   68
##########             Matchnum:                    1
##########                Cloud:                    1
##########        Electrostatic:           -44.283226
##########                 Gist:             0.000000
##########        Van der Waals:           -33.818760
##########  Ligand Polar Desolv:            20.133209
########## Ligand Apolar Desolv:            -5.781069
##########      Internal Energy:             0.000000
##########      Receptor Energy:             0.000000
########## Receptor Desolvation:             0.000000
########## Receptor Hydrophobic:             0.000000
##########         Total Energy:           -63.749847
##########        Ligand Charge:             1.000000
##########            Arbitrary:    +999.9990
##########        Ligand Energy:             0.000000

@<TRIPOS>MOLECULE
 ZINC000644817849      none
   49    52     0     0     0



@<TRIPOS>ATOM
      1 C1        -14.5589    10.0323   -12.0350 C.3        1  LIG1  -0.1200
      2 C2        -14.6732    11.3199   -12.8095 C.ar       1  LIG1  -0.0700
      3 C3        -15.7551    11.5274   -13.6456 C.ar       1  LIG1  -0.1300
      4 C4        -15.8648    12.7051   -14.3573 C.ar       1  LIG1  -0.0900
      5 C5        -14.8832    13.6854   -14.2323 C.ar       1  LIG1  -0.0400
      6 C6        -14.9961    14.9540   -14.9949 C.2        1  LIG1   0.0900
      7 N1        -13.9961    15.6900   -15.4323 N.2        1  LIG1  -0.2500
      8 N2        -14.4307    16.7249   -16.0565 N.pl3      1  LIG1  -0.3900
      9 C7        -15.7973    16.7239   -16.0627 C.2        1  LIG1  -0.0600
     10 C8        -16.6765    17.7336   -16.6744 C.2        1  LIG1   0.6200
     11 O1        -17.0442    18.6937   -16.0246 O.2        1  LIG1  -0.5000
     12 N3        -17.0740    17.5941   -17.9546 N.am       1  LIG1  -0.6300
     13 C9        -16.3101    16.9233   -19.0219 C.3        1  LIG1   0.0700
     14 C10       -16.8339    17.5498   -20.3378 C.3        1  LIG1  -0.1200
     15 C11       -18.3436    17.7246   -20.0246 C.3        1  LIG1  -0.1100
     16 H1        -18.8280    18.4766   -20.6476 H          1  LIG1   0.1400
     17 C12       -19.0168    16.3449   -20.1077 C.3        1  LIG1  -0.0100
     18 N4        -19.7000    16.0930   -18.8305 N.4        1  LIG1  -0.3900
     19 H2        -19.3054    15.2739   -18.3931 H          1  LIG1   0.4300
     20 C13       -21.1327    15.8787   -19.0742 C.3        1  LIG1  -0.0500
     21 C14       -19.5212    17.2562   -17.9473 C.3        1  LIG1  -0.0300
     22 C15       -18.3410    18.0794   -18.5130 C.3        1  LIG1   0.1300
     23 H3        -18.4754    19.1464   -18.3351 H          1  LIG1   0.1400
     24 C16       -16.1909    15.5849   -15.3866 C.2        1  LIG1  -0.1200
     25 C17       -13.7953    13.4713   -13.3886 C.ar       1  LIG1  -0.0500
     26 C18       -12.7295    14.5274   -13.2483 C.3        1  LIG1  -0.1300
     27 C19       -13.6984    12.2926   -12.6773 C.ar       1  LIG1  -0.1200
     28 H4        -15.4112     9.3931   -12.2649 H          1  LIG1   0.0800
     29 H5        -13.6366     9.5220   -12.3126 H          1  LIG1   0.0700
     30 H6        -14.5460    10.2506   -10.9671 H          1  LIG1   0.0700
     31 H7        -16.5155    10.7664   -13.7420 H          1  LIG1   0.1300
     32 H8        -16.7098    12.8659   -15.0103 H          1  LIG1   0.1300
     33 H9        -13.8722    17.4059   -16.4628 H          1  LIG1   0.4400
     34 H10       -15.2441    17.1197   -18.9064 H          1  LIG1   0.0900
     35 H11       -16.5026    15.8506   -19.0096 H          1  LIG1   0.0800
     36 H12       -16.3604    18.5133   -20.5268 H          1  LIG1   0.1100
     37 H13       -16.6859    16.8723   -21.1786 H          1  LIG1   0.1100
     38 H14       -19.7422    16.3373   -20.9212 H          1  LIG1   0.1400
     39 H15       -18.2627    15.5769   -20.2797 H          1  LIG1   0.1300
     40 H16       -21.6384    15.6919   -18.1268 H          1  LIG1   0.1300
     41 H17       -21.5579    16.7652   -19.5445 H          1  LIG1   0.1200
     42 H18       -21.2648    15.0196   -19.7320 H          1  LIG1   0.1300
     43 H19       -20.4239    17.8670   -17.9481 H          1  LIG1   0.1500
     44 H20       -19.2967    16.9237   -16.9339 H          1  LIG1   0.1400
     45 H21       -17.2005    15.2530   -15.1944 H          1  LIG1   0.1700
     46 H22       -11.9660    14.1827   -12.5508 H          1  LIG1   0.0700
     47 H23       -12.2746    14.7160   -14.2207 H          1  LIG1   0.0600
     48 H24       -13.1768    15.4473   -12.8719 H          1  LIG1   0.0900
     49 H25       -12.8558    12.1257   -12.0228 H          1  LIG1   0.1300
@<TRIPOS>BOND
     1    1    2 1
     2    1   28 1
     3    1   29 1
     4    1   30 1
     5    2   27 ar
     6    2    3 ar
     7    3    4 ar
     8    3   31 1
     9    4    5 ar
    10    4   32 1
    11    5    6 1
    12    5   25 ar
    13    6   24 1
    14    6    7 2
    15    7    8 1
    16    8    9 1
    17    8   33 1
    18    9   10 1
    19    9   24 2
    20   10   11 2
    21   10   12 am
    22   12   22 1
    23   12   13 1
    24   13   14 1
    25   13   34 1
    26   13   35 1
    27   14   15 1
    28   14   36 1
    29   14   37 1
    30   15   16 1
    31   15   22 1
    32   15   17 1
    33   17   18 1
    34   17   38 1
    35   17   39 1
    36   18   19 1
    37   18   20 1
    38   18   21 1
    39   20   40 1
    40   20   41 1
    41   20   42 1
    42   21   22 1
    43   21   43 1
    44   21   44 1
    45   22   23 1
    46   24   45 1
    47   25   26 1
    48   25   27 ar
    49   26   46 1
    50   26   47 1
    51   26   48 1
    52   27   49 1
##########                 Name:     ZINC000276460128
##########          Protonation:                 none
##########               SMILES:   C=CCC[N@@H+](C)[C@H](C)C(=O)NC1=CC([N+](=O)[O-])=CC=C1OC
##########            Long Name:   NO_LONG_NAME
##########          FlexRecCode: 1
##########               Number:                 9423
##########   Ligand Source File: /nfs/db/export/3D/DE/EDRO/DEEDRO.xas.db2.gz
##########                 Rank:                    1
##########               Setnum:                  152
##########             Matchnum:                    1
##########                Cloud:                    1
##########        Electrostatic:           -48.771366
##########                 Gist:             0.000000
##########        Van der Waals:           -29.622147
##########  Ligand Polar Desolv:            18.577805
########## Ligand Apolar Desolv:            -4.483942
##########      Internal Energy:             0.000000
##########      Receptor Energy:             0.000000
########## Receptor Desolvation:             0.000000
########## Receptor Hydrophobic:             0.000000
##########         Total Energy:           -64.299644
##########        Ligand Charge:             1.000000
##########            Arbitrary:    +999.9990
##########        Ligand Energy:             0.000000

@<TRIPOS>MOLECULE
 ZINC000276460128      none
   44    44     0     0     0



@<TRIPOS>ATOM
      1 C1        -21.1494    17.8607   -21.0367 C.2        1  LIG1  -0.1500
      2 C2        -20.7884    18.3601   -19.8808 C.2        1  LIG1  -0.1900
      3 C3        -20.2173    17.4594   -18.8161 C.3        1  LIG1  -0.1100
      4 C4        -18.6968    17.3873   -18.9708 C.3        1  LIG1  -0.0100
      5 N1        -18.1401    16.5095   -17.9329 N.4        1  LIG1  -0.3700
      6 H1        -18.7439    15.7107   -17.8087 H          1  LIG1   0.4300
      7 C5        -18.0403    17.2491   -16.6676 C.3        1  LIG1  -0.0600
      8 C6        -16.8042    16.0547   -18.3410 C.3        1  LIG1   0.0100
      9 H2        -16.2676    16.8790   -18.8106 H          1  LIG1   0.1600
     10 C7        -16.9403    14.9015   -19.3371 C.3        1  LIG1  -0.1800
     11 C8        -16.0416    15.5846   -17.1291 C.2        1  LIG1   0.5000
     12 O1        -14.9983    16.1220   -16.8228 O.2        1  LIG1  -0.5000
     13 N2        -16.5190    14.5668   -16.3857 N.am       1  LIG1  -0.6300
     14 C9        -15.8100    14.1295   -15.2589 C.ar       1  LIG1   0.0900
     15 C10       -15.0356    15.0234   -14.5347 C.ar       1  LIG1  -0.0300
     16 C11       -14.3373    14.5898   -13.4232 C.ar       1  LIG1  -0.0600
     17 N3        -13.5113    15.5452   -12.6513 N.pl3      1  LIG1   0.0300
     18 O2        -13.4474    16.7118   -12.9955 O.2        1  LIG1  -0.1500
     19 O3        -12.8953    15.1647   -11.6718 O.2        1  LIG1  -0.1500
     20 C12       -14.4091    13.2664   -13.0305 C.ar       1  LIG1  -0.0100
     21 C13       -15.1792    12.3692   -13.7477 C.ar       1  LIG1  -0.1900
     22 C14       -15.8856    12.7967   -14.8598 C.ar       1  LIG1   0.1700
     23 O4        -16.6437    11.9158   -15.5657 O.3        1  LIG1  -0.3100
     24 C15       -16.0016    11.2190   -16.6354 C.3        1  LIG1   0.0200
     25 H3        -21.0377    16.8034   -21.2268 H          1  LIG1   0.1000
     26 H4        -21.5628    18.5055   -21.7981 H          1  LIG1   0.1100
     27 H5        -20.9000    19.4174   -19.6908 H          1  LIG1   0.1200
     28 H6        -20.4639    17.8582   -17.8321 H          1  LIG1   0.1000
     29 H7        -20.6408    16.4604   -18.9197 H          1  LIG1   0.0900
     30 H8        -18.4502    16.9887   -19.9547 H          1  LIG1   0.1400
     31 H9        -18.2734    18.3864   -18.8670 H          1  LIG1   0.1400
     32 H10       -17.6271    16.5976   -15.8976 H          1  LIG1   0.1300
     33 H11       -17.3880    18.1121   -16.8017 H          1  LIG1   0.1300
     34 H12       -19.0316    17.5865   -16.3647 H          1  LIG1   0.1200
     35 H13       -15.9491    14.5640   -19.6399 H          1  LIG1   0.1000
     36 H14       -17.4769    14.0771   -18.8674 H          1  LIG1   0.1100
     37 H15       -17.4919    15.2415   -20.2136 H          1  LIG1   0.0900
     38 H16       -17.3534    14.1369   -16.6306 H          1  LIG1   0.4300
     39 H17       -14.9777    16.0580   -14.8392 H          1  LIG1   0.1900
     40 H18       -13.8619    12.9321   -12.1615 H          1  LIG1   0.1700
     41 H19       -15.2331    11.3359   -13.4382 H          1  LIG1   0.1600
     42 H20       -16.7168    10.5500   -17.1141 H          1  LIG1   0.0700
     43 H21       -15.6309    11.9375   -17.3663 H          1  LIG1   0.0700
     44 H22       -15.1677    10.6379   -16.2418 H          1  LIG1   0.1200
@<TRIPOS>BOND
     1    1    2 2
     2    1   25 1
     3    1   26 1
     4    2    3 1
     5    2   27 1
     6    3    4 1
     7    3   28 1
     8    3   29 1
     9    4    5 1
    10    4   30 1
    11    4   31 1
    12    5    6 1
    13    5    7 1
    14    5    8 1
    15    7   32 1
    16    7   33 1
    17    7   34 1
    18    8    9 1
    19    8   10 1
    20    8   11 1
    21   10   35 1
    22   10   36 1
    23   10   37 1
    24   11   12 2
    25   11   13 am
    26   13   14 1
    27   13   38 1
    28   14   22 ar
    29   14   15 ar
    30   15   16 ar
    31   15   39 1
    32   16   17 1
    33   16   20 ar
    34   17   18 2
    35   17   19 2
    36   20   21 ar
    37   20   40 1
    38   21   22 ar
    39   21   41 1
    40   22   23 1
    41   23   24 1
    42   24   42 1
    43   24   43 1
    44   24   44 1
##########                 Name:     ZINC000542319253
##########          Protonation:                 none
##########               SMILES:   CC1=CC=C([C@@H]2CC[N@@H+](C[C@@H](O)COCC3=CC=CC=C3)C2)C=C1
##########            Long Name:   NO_LONG_NAME
##########          FlexRecCode: 1
##########               Number:                 4353
##########   Ligand Source File: /nfs/db/export/3D/EG/ADMO/EGADMO.xbcy.db2.gz
##########                 Rank:                    1
##########               Setnum:                  123
##########             Matchnum:                    1
##########                Cloud:                    1
##########        Electrostatic:           -40.666534
##########                 Gist:             0.000000
##########        Van der Waals:           -31.487614
##########  Ligand Polar Desolv:            14.982497
########## Ligand Apolar Desolv:            -5.792377
##########      Internal Energy:             0.000000
##########      Receptor Energy:             0.000000
########## Receptor Desolvation:             0.000000
########## Receptor Hydrophobic:             0.000000
##########         Total Energy:           -62.964024
##########        Ligand Charge:             1.000000
##########            Arbitrary:    +999.9990
##########        Ligand Energy:             0.000000

@<TRIPOS>MOLECULE
 ZINC000542319253      none
   52    54     0     0     0



@<TRIPOS>ATOM
      1 C1        -14.7010    11.0782   -12.7455 C.3        1  LIG1  -0.1300
      2 C2        -15.1143    12.3774   -13.3879 C.ar       1  LIG1  -0.0700
      3 C3        -14.5579    13.5680   -12.9595 C.ar       1  LIG1  -0.1100
      4 C4        -14.9370    14.7597   -13.5487 C.ar       1  LIG1  -0.1000
      5 C5        -15.8724    14.7606   -14.5665 C.ar       1  LIG1  -0.1100
      6 C6        -16.2860    16.0597   -15.2084 C.3        1  LIG1  -0.0600
      7 H1        -15.7529    16.8934   -14.7515 H          1  LIG1   0.1200
      8 C7        -17.8130    16.2616   -15.0752 C.3        1  LIG1  -0.1400
      9 C8        -18.2019    16.8757   -16.4435 C.3        1  LIG1   0.0000
     10 N1        -17.3243    16.1551   -17.4012 N.4        1  LIG1  -0.3900
     11 H2        -17.7077    15.2448   -17.6071 H          1  LIG1   0.4300
     12 C9        -17.1762    16.9345   -18.6375 C.3        1  LIG1  -0.0400
     13 C10       -18.4085    16.7293   -19.5206 C.3        1  LIG1   0.0900
     14 H3        -18.7160    15.6844   -19.4782 H          1  LIG1   0.1300
     15 O1        -19.4738    17.5587   -19.0519 O.3        1  LIG1  -0.5400
     16 C11       -18.0689    17.1029   -20.9648 C.3        1  LIG1   0.0300
     17 O2        -17.6659    18.4727   -21.0204 O.3        1  LIG1  -0.3700
     18 C12       -17.3248    18.9255   -22.3321 C.3        1  LIG1   0.1100
     19 C13       -17.3961    20.4300   -22.3786 C.ar       1  LIG1  -0.1000
     20 C14       -16.5773    21.1346   -23.2413 C.ar       1  LIG1  -0.1000
     21 C15       -16.6427    22.5147   -23.2839 C.ar       1  LIG1  -0.1200
     22 C16       -17.5272    23.1903   -22.4640 C.ar       1  LIG1  -0.1100
     23 C17       -18.3466    22.4857   -21.6020 C.ar       1  LIG1  -0.1200
     24 C18       -18.2843    21.1055   -21.5625 C.ar       1  LIG1  -0.1000
     25 C19       -16.0143    16.0176   -16.7236 C.3        1  LIG1   0.0000
     26 C20       -16.4278    13.5698   -14.9958 C.ar       1  LIG1  -0.1200
     27 C21       -16.0458    12.3778   -14.4093 C.ar       1  LIG1  -0.1100
     28 H4        -13.9645    11.2761   -11.9668 H          1  LIG1   0.0800
     29 H5        -15.5742    10.5964   -12.3057 H          1  LIG1   0.0700
     30 H6        -14.2654    10.4225   -13.4995 H          1  LIG1   0.0700
     31 H7        -13.8271    13.5672   -12.1642 H          1  LIG1   0.1300
     32 H8        -14.5027    15.6899   -13.2134 H          1  LIG1   0.1300
     33 H9        -18.3165    15.3070   -14.9237 H          1  LIG1   0.1000
     34 H10       -18.0413    16.9526   -14.2635 H          1  LIG1   0.1200
     35 H11       -19.2519    16.6856   -16.6660 H          1  LIG1   0.1500
     36 H12       -17.9919    17.9452   -16.4590 H          1  LIG1   0.1300
     37 H13       -17.0777    17.9917   -18.3909 H          1  LIG1   0.1400
     38 H14       -16.2864    16.6018   -19.1722 H          1  LIG1   0.1400
     39 H15       -19.7421    17.3770   -18.1409 H          1  LIG1   0.3900
     40 H16       -17.2565    16.4702   -21.3223 H          1  LIG1   0.0600
     41 H17       -18.9470    16.9567   -21.5940 H          1  LIG1   0.0700
     42 H18       -16.3131    18.6019   -22.5766 H          1  LIG1   0.0600
     43 H19       -18.0250    18.5060   -23.0548 H          1  LIG1   0.0600
     44 H20       -15.8862    20.6067   -23.8817 H          1  LIG1   0.1200
     45 H21       -16.0025    23.0651   -23.9574 H          1  LIG1   0.1300
     46 H22       -17.5779    24.2687   -22.4968 H          1  LIG1   0.1300
     47 H23       -19.0374    23.0136   -20.9613 H          1  LIG1   0.1300
     48 H24       -18.9245    20.5550   -20.8890 H          1  LIG1   0.1200
     49 H25       -15.3605    16.8416   -17.0088 H          1  LIG1   0.1300
     50 H26       -15.5555    15.0660   -16.9920 H          1  LIG1   0.1300
     51 H27       -17.1583    13.5705   -15.7913 H          1  LIG1   0.1100
     52 H28       -16.4798    11.4474   -14.7446 H          1  LIG1   0.1300
@<TRIPOS>BOND
     1    1    2 1
     2    1   28 1
     3    1   29 1
     4    1   30 1
     5    2   27 ar
     6    2    3 ar
     7    3    4 ar
     8    3   31 1
     9    4    5 ar
    10    4   32 1
    11    5    6 1
    12    5   26 ar
    13    6    7 1
    14    6   25 1
    15    6    8 1
    16    8    9 1
    17    8   33 1
    18    8   34 1
    19    9   10 1
    20    9   35 1
    21    9   36 1
    22   10   11 1
    23   10   12 1
    24   10   25 1
    25   12   13 1
    26   12   37 1
    27   12   38 1
    28   13   14 1
    29   13   15 1
    30   13   16 1
    31   15   39 1
    32   16   17 1
    33   16   40 1
    34   16   41 1
    35   17   18 1
    36   18   19 1
    37   18   42 1
    38   18   43 1
    39   19   24 ar
    40   19   20 ar
    41   20   21 ar
    42   20   44 1
    43   21   22 ar
    44   21   45 1
    45   22   23 ar
    46   22   46 1
    47   23   24 ar
    48   23   47 1
    49   24   48 1
    50   25   49 1
    51   25   50 1
    52   26   27 ar
    53   26   51 1
    54   27   52 1
##########                 Name:     ZINC000373103619
##########          Protonation:                 none
##########               SMILES:   C[C@@H](NC(=O)C[N@@H+]1CCCC12CCC2)C1=CC=CS1
##########            Long Name:   NO_LONG_NAME
##########          FlexRecCode: 1
##########               Number:                 9385
##########   Ligand Source File: /nfs/db/export/3D/CF/ADRO/CFADRO.xcub.db2.gz
##########                 Rank:                    1
##########               Setnum:                   37
##########             Matchnum:                    1
##########                Cloud:                    1
##########        Electrostatic:           -46.237022
##########                 Gist:             0.000000
##########        Van der Waals:           -23.484262
##########  Ligand Polar Desolv:            11.244384
########## Ligand Apolar Desolv:            -4.518836
##########      Internal Energy:             0.000000
##########      Receptor Energy:             0.000000
########## Receptor Desolvation:             0.000000
########## Receptor Hydrophobic:             0.000000
##########         Total Energy:           -62.995735
##########        Ligand Charge:             1.000000
##########            Arbitrary:    +999.9990
##########        Ligand Energy:             0.000000

@<TRIPOS>MOLECULE
 ZINC000373103619      none
   42    44     0     0     0



@<TRIPOS>ATOM
      1 C1        -14.9854    16.4456   -16.7642 C.3        1  LIG1  -0.1600
      2 C2        -16.1068    16.0454   -15.8032 C.3        1  LIG1   0.2200
      3 H1        -16.1023    16.7130   -14.9415 H          1  LIG1   0.1100
      4 N1        -17.3970    16.1437   -16.4903 N.am       1  LIG1  -0.7000
      5 C3        -18.0710    17.3109   -16.4946 C.2        1  LIG1   0.5000
      6 O1        -17.6094    18.2798   -15.9296 O.2        1  LIG1  -0.5200
      7 C4        -19.3980    17.4120   -17.2014 C.3        1  LIG1  -0.0400
      8 N2        -19.4218    16.4773   -18.3344 N.4        1  LIG1  -0.3500
      9 H2        -19.2921    15.5338   -18.0011 H          1  LIG1   0.4300
     10 C5        -18.3444    16.8223   -19.2893 C.3        1  LIG1   0.0000
     11 C6        -18.9473    16.5361   -20.6878 C.3        1  LIG1  -0.1400
     12 C7        -20.4229    16.9784   -20.4923 C.3        1  LIG1  -0.1200
     13 C8        -20.7070    16.5822   -19.0361 C.3        1  LIG1   0.0100
     14 C9        -21.6430    15.3817   -18.8682 C.3        1  LIG1  -0.1300
     15 C10       -22.2518    16.1307   -17.6694 C.3        1  LIG1  -0.1600
     16 C11       -21.7700    17.4323   -18.3345 C.3        1  LIG1  -0.1400
     17 C12       -15.8905    14.6274   -15.3412 C.2        1  LIG1  -0.2200
     18 C13       -15.1896    14.2678   -14.2649 C.2        1  LIG1  -0.1000
     19 C14       -15.1282    12.9038   -14.0377 C.2        1  LIG1  -0.1400
     20 C15       -15.7795    12.1556   -14.9296 C.2        1  LIG1  -0.1900
     21 S1        -16.5299    13.1939   -16.1347 S.3        1  LIG1   0.1000
     22 H3        -14.9899    15.7780   -17.6258 H          1  LIG1   0.0800
     23 H4        -15.1419    17.4712   -17.0982 H          1  LIG1   0.0700
     24 H5        -14.0255    16.3723   -16.2529 H          1  LIG1   0.0700
     25 H6        -17.7659    15.3690   -16.9423 H          1  LIG1   0.4100
     26 H7        -20.1997    17.1614   -16.5068 H          1  LIG1   0.1600
     27 H8        -19.5385    18.4293   -17.5667 H          1  LIG1   0.1600
     28 H9        -18.0800    17.8758   -19.1984 H          1  LIG1   0.1300
     29 H10       -17.4700    16.1946   -19.1175 H          1  LIG1   0.1400
     30 H11       -18.4581    17.1375   -21.4541 H          1  LIG1   0.1200
     31 H12       -18.8868    15.4749   -20.9291 H          1  LIG1   0.1000
     32 H13       -20.5240    18.0556   -20.6253 H          1  LIG1   0.1000
     33 H14       -21.0809    16.4406   -21.1749 H          1  LIG1   0.1100
     34 H15       -22.3366    15.2487   -19.6984 H          1  LIG1   0.1300
     35 H16       -21.1284    14.4612   -18.5930 H          1  LIG1   0.0900
     36 H17       -23.3369    16.0476   -17.6083 H          1  LIG1   0.1000
     37 H18       -21.7561    15.9151   -16.7229 H          1  LIG1   0.0900
     38 H19       -21.3572    18.1556   -17.6314 H          1  LIG1   0.0900
     39 H20       -22.4990    17.8707   -19.0161 H          1  LIG1   0.1300
     40 H21       -14.7062    14.9865   -13.6197 H          1  LIG1   0.1500
     41 H22       -14.5936    12.4775   -13.2018 H          1  LIG1   0.1500
     42 H23       -15.8397    11.0774   -14.9123 H          1  LIG1   0.1700
@<TRIPOS>BOND
     1    1    2 1
     2    1   22 1
     3    1   23 1
     4    1   24 1
     5    2    3 1
     6    2    4 1
     7    2   17 1
     8    4    5 am
     9    4   25 1
    10    5    6 2
    11    5    7 1
    12    7    8 1
    13    7   26 1
    14    7   27 1
    15    8    9 1
    16    8   13 1
    17    8   10 1
    18   10   11 1
    19   10   28 1
    20   10   29 1
    21   11   12 1
    22   11   30 1
    23   11   31 1
    24   12   13 1
    25   12   32 1
    26   12   33 1
    27   13   16 1
    28   13   14 1
    29   14   15 1
    30   14   34 1
    31   14   35 1
    32   15   16 1
    33   15   36 1
    34   15   37 1
    35   16   38 1
    36   16   39 1
    37   17   21 1
    38   17   18 2
    39   18   19 1
    40   18   40 1
    41   19   20 2
    42   19   41 1
    43   20   21 1
    44   20   42 1
##########                 Name:     ZINC000510093899
##########          Protonation:                 none
##########               SMILES:   C[N@H+](CC(=O)NC1=CC(C(F)(F)F)=CC=C1Cl)[C@H]1CCCOC1
##########            Long Name:   NO_LONG_NAME
##########          FlexRecCode: 1
##########               Number:                10603
##########   Ligand Source File: /nfs/db/export/3D/FG/ADMO/FGADMO.xabu.db2.gz
##########                 Rank:                    1
##########               Setnum:                   31
##########             Matchnum:                    1
##########                Cloud:                    1
##########        Electrostatic:           -42.814289
##########                 Gist:             0.000000
##########        Van der Waals:           -30.001720
##########  Ligand Polar Desolv:            14.976685
########## Ligand Apolar Desolv:            -4.679848
##########      Internal Energy:             0.000000
##########      Receptor Energy:             0.000000
########## Receptor Desolvation:             0.000000
########## Receptor Hydrophobic:             0.000000
##########         Total Energy:           -62.519173
##########        Ligand Charge:             1.000000
##########            Arbitrary:    +999.9990
##########        Ligand Energy:             0.000000

@<TRIPOS>MOLECULE
 ZINC000510093899      none
   42    43     0     0     0



@<TRIPOS>ATOM
      1 C1        -18.9206    17.9025   -17.1794 C.3        1  LIG1  -0.0700
      2 N1        -18.6051    16.6743   -17.9210 N.4        1  LIG1  -0.3700
      3 H1        -18.8513    15.8712   -17.3620 H          1  LIG1   0.4300
      4 C2        -17.1677    16.6396   -18.2219 C.3        1  LIG1  -0.0300
      5 C3        -16.4105    16.1766   -17.0040 C.2        1  LIG1   0.5100
      6 O1        -16.0144    16.9860   -16.1921 O.2        1  LIG1  -0.5000
      7 N2        -16.1735    14.8631   -16.8169 N.am       1  LIG1  -0.6400
      8 C4        -15.4702    14.4331   -15.6855 C.ar       1  LIG1   0.1400
      9 C5        -14.5177    15.2580   -15.1033 C.ar       1  LIG1  -0.0700
     10 C6        -13.8255    14.8310   -13.9865 C.ar       1  LIG1  -0.1600
     11 C7        -12.7916    15.7266   -13.3539 C.3        1  LIG1   0.5100
     12 F1        -12.7129    16.9261   -14.0697 F          1  LIG1  -0.1700
     13 F2        -13.1555    15.9965   -12.0304 F          1  LIG1  -0.1700
     14 F3        -11.5467    15.0888   -13.3745 F          1  LIG1  -0.1700
     15 C8        -14.0802    13.5834   -13.4481 C.ar       1  LIG1  -0.0600
     16 C9        -15.0281    12.7581   -14.0254 C.ar       1  LIG1  -0.0800
     17 C10       -15.7282    13.1813   -15.1391 C.ar       1  LIG1  -0.0300
     18 Cl1       -16.9183    12.1455   -15.8631 Cl         1  LIG1  -0.0400
     19 C11       -19.3687    16.6504   -19.1757 C.3        1  LIG1  -0.0100
     20 H2        -18.8978    15.9601   -19.8756 H          1  LIG1   0.1500
     21 C12       -20.8033    16.1933   -18.8931 C.3        1  LIG1  -0.1500
     22 C13       -21.6101    16.2467   -20.1941 C.3        1  LIG1  -0.1500
     23 C14       -21.5541    17.6673   -20.7621 C.3        1  LIG1   0.0400
     24 O2        -20.1911    18.0413   -20.9726 O.3        1  LIG1  -0.3500
     25 C15       -19.3980    18.0549   -19.7839 C.3        1  LIG1   0.0500
     26 H3        -18.6547    18.7701   -17.7832 H          1  LIG1   0.1300
     27 H4        -19.9872    17.9283   -16.9561 H          1  LIG1   0.1400
     28 H5        -18.3540    17.9204   -16.2483 H          1  LIG1   0.1300
     29 H6        -16.9857    15.9504   -19.0466 H          1  LIG1   0.1700
     30 H7        -16.8308    17.6378   -18.5014 H          1  LIG1   0.1700
     31 H8        -16.4902    14.2158   -17.4662 H          1  LIG1   0.4300
     32 H9        -14.3176    16.2327   -15.5233 H          1  LIG1   0.1700
     33 H10       -13.5376    13.2523   -12.5750 H          1  LIG1   0.1600
     34 H11       -15.2246    11.7839   -13.6026 H          1  LIG1   0.1600
     35 H12       -20.7923    15.1720   -18.5126 H          1  LIG1   0.0900
     36 H13       -21.2577    16.8540   -18.1548 H          1  LIG1   0.0900
     37 H14       -21.1847    15.5490   -20.9154 H          1  LIG1   0.0900
     38 H15       -22.6463    15.9761   -19.9914 H          1  LIG1   0.1000
     39 H16       -22.0909    17.7010   -21.7101 H          1  LIG1   0.1200
     40 H17       -22.0162    18.3589   -20.0576 H          1  LIG1   0.0700
     41 H18       -19.8311    18.7515   -19.0659 H          1  LIG1   0.0800
     42 H19       -18.3829    18.3684   -20.0276 H          1  LIG1   0.1200
@<TRIPOS>BOND
     1    1    2 1
     2    1   26 1
     3    1   27 1
     4    1   28 1
     5    2    3 1
     6    2    4 1
     7    2   19 1
     8    4    5 1
     9    4   29 1
    10    4   30 1
    11    5    6 2
    12    5    7 am
    13    7    8 1
    14    7   31 1
    15    8   17 ar
    16    8    9 ar
    17    9   10 ar
    18    9   32 1
    19   10   11 1
    20   10   15 ar
    21   11   12 1
    22   11   13 1
    23   11   14 1
    24   15   16 ar
    25   15   33 1
    26   16   17 ar
    27   16   34 1
    28   17   18 1
    29   19   20 1
    30   19   25 1
    31   19   21 1
    32   21   22 1
    33   21   35 1
    34   21   36 1
    35   22   23 1
    36   22   37 1
    37   22   38 1
    38   23   24 1
    39   23   39 1
    40   23   40 1
    41   24   25 1
    42   25   41 1
    43   25   42 1
##########                 Name:     ZINC000301830392
##########          Protonation:                 none
##########               SMILES:   CC(C)(C)n1ncc2c1ncnc2NCC(C)(C)[NH+]1CCOCC1
##########            Long Name:   NO_LONG_NAME
##########          FlexRecCode: 1
##########               Number:                10457
##########   Ligand Source File: /nfs/db/export/3D/EE/ADMO/EEADMO.xbug.db2.gz
##########                 Rank:                    1
##########               Setnum:                   42
##########             Matchnum:                    1
##########                Cloud:                    1
##########        Electrostatic:           -39.581699
##########                 Gist:             0.000000
##########        Van der Waals:           -34.002308
##########  Ligand Polar Desolv:            15.051060
########## Ligand Apolar Desolv:            -4.450114
##########      Internal Energy:             0.000000
##########      Receptor Energy:             0.000000
########## Receptor Desolvation:             0.000000
########## Receptor Hydrophobic:             0.000000
##########         Total Energy:           -62.983063
##########        Ligand Charge:             1.000000
##########            Arbitrary:    +999.9990
##########        Ligand Energy:             0.000000

@<TRIPOS>MOLECULE
 ZINC000301830392      none
   53    55     0     0     0



@<TRIPOS>ATOM
      1 C1        -13.5316    15.3419   -11.6776 C.3        1  LIG1  -0.1600
      2 C2        -13.3389    14.4821   -12.9285 C.3        1  LIG1   0.1900
      3 C3        -11.9696    14.7771   -13.5440 C.3        1  LIG1  -0.1600
      4 C4        -13.4188    13.0025   -12.5475 C.3        1  LIG1  -0.1500
      5 N1        -14.3890    14.7933   -13.9014 N.pl3      1  LIG1  -0.3600
      6 N2        -15.3315    13.8901   -14.4089 N.2        1  LIG1  -0.2300
      7 C5        -16.1151    14.5004   -15.2514 C.2        1  LIG1   0.0900
      8 C6        -15.7156    15.8518   -15.3354 C.ar       1  LIG1  -0.3300
      9 C7        -16.1648    16.9743   -16.0572 C.ar       1  LIG1   0.5100
     10 N3        -17.2375    16.8768   -16.9215 N.pl3      1  LIG1  -0.7300
     11 C8        -17.4267    17.8816   -17.9706 C.3        1  LIG1   0.1200
     12 C9        -18.1202    17.2388   -19.1734 C.3        1  LIG1   0.0400
     13 C10       -18.3177    18.2882   -20.2691 C.3        1  LIG1  -0.1700
     14 C11       -17.2552    16.0970   -19.7107 C.3        1  LIG1  -0.1800
     15 N4        -19.4271    16.7104   -18.7602 N.4        1  LIG1  -0.3800
     16 H1        -19.2971    16.0182   -18.0376 H          1  LIG1   0.4100
     17 C12       -20.0937    16.0935   -19.9154 C.3        1  LIG1  -0.0500
     18 C13       -21.4549    15.5436   -19.4822 C.3        1  LIG1   0.0400
     19 O1        -22.2380    16.6050   -18.9290 O.3        1  LIG1  -0.3500
     20 C14       -21.6193    17.2538   -17.8146 C.3        1  LIG1   0.0400
     21 C15       -20.2582    17.8069   -18.2444 C.3        1  LIG1  -0.0500
     22 N5        -15.5317    18.1298   -15.8859 N.ar       1  LIG1  -0.6000
     23 C16       -14.5049    18.2317   -15.0607 C.ar       1  LIG1   0.3900
     24 N6        -14.0492    17.2123   -14.3660 N.ar       1  LIG1  -0.5500
     25 C17       -14.6204    16.0131   -14.4642 C.ar       1  LIG1   0.3700
     26 H2        -14.5072    15.1317   -11.2391 H          1  LIG1   0.0800
     27 H3        -12.7503    15.1104   -10.9537 H          1  LIG1   0.0600
     28 H4        -13.4748    16.3960   -11.9489 H          1  LIG1   0.0900
     29 H5        -11.8323    14.1646   -14.4351 H          1  LIG1   0.0900
     30 H6        -11.9128    15.8313   -13.8155 H          1  LIG1   0.0600
     31 H7        -11.1883    14.5457   -12.8201 H          1  LIG1   0.0800
     32 H8        -13.2815    12.3899   -13.4385 H          1  LIG1   0.0700
     33 H9        -12.6374    12.7711   -11.8236 H          1  LIG1   0.0700
     34 H10       -14.3942    12.7923   -12.1088 H          1  LIG1   0.0800
     35 H11       -16.9324    14.0489   -15.7943 H          1  LIG1   0.1900
     36 H12       -17.8658    16.1429   -16.8338 H          1  LIG1   0.4000
     37 H13       -18.0431    18.6952   -17.5878 H          1  LIG1   0.1000
     38 H14       -16.4570    18.2738   -18.2772 H          1  LIG1   0.1200
     39 H15       -18.8119    17.8304   -21.1260 H          1  LIG1   0.1100
     40 H16       -18.9340    19.1018   -19.8864 H          1  LIG1   0.0900
     41 H17       -17.3481    18.6805   -20.5757 H          1  LIG1   0.0900
     42 H18       -17.7493    15.6391   -20.5676 H          1  LIG1   0.0800
     43 H19       -16.2854    16.4891   -20.0174 H          1  LIG1   0.0900
     44 H20       -17.1145    15.3495   -18.9301 H          1  LIG1   0.1100
     45 H21       -20.2353    16.8414   -20.6957 H          1  LIG1   0.1400
     46 H22       -19.4780    15.2798   -20.2986 H          1  LIG1   0.1500
     47 H23       -21.9696    15.1237   -20.3465 H          1  LIG1   0.1400
     48 H24       -21.3115    14.7672   -18.7307 H          1  LIG1   0.0800
     49 H25       -22.2530    18.0719   -17.4719 H          1  LIG1   0.1400
     50 H26       -21.4814    16.5360   -17.0061 H          1  LIG1   0.0800
     51 H27       -19.7649    18.2652   -17.3873 H          1  LIG1   0.1400
     52 H28       -20.3996    18.5542   -19.0253 H          1  LIG1   0.1500
     53 H29       -14.0202    19.1907   -14.9524 H          1  LIG1   0.2100
@<TRIPOS>BOND
     1    1    2 1
     2    1   26 1
     3    1   27 1
     4    1   28 1
     5    2    3 1
     6    2    4 1
     7    2    5 1
     8    3   29 1
     9    3   30 1
    10    3   31 1
    11    4   32 1
    12    4   33 1
    13    4   34 1
    14    5   25 1
    15    5    6 1
    16    6    7 2
    17    7    8 1
    18    7   35 1
    19    8   25 ar
    20    8    9 ar
    21    9   10 1
    22    9   22 ar
    23   10   11 1
    24   10   36 1
    25   11   12 1
    26   11   37 1
    27   11   38 1
    28   12   13 1
    29   12   14 1
    30   12   15 1
    31   13   39 1
    32   13   40 1
    33   13   41 1
    34   14   42 1
    35   14   43 1
    36   14   44 1
    37   15   16 1
    38   15   21 1
    39   15   17 1
    40   17   18 1
    41   17   45 1
    42   17   46 1
    43   18   19 1
    44   18   47 1
    45   18   48 1
    46   19   20 1
    47   20   21 1
    48   20   49 1
    49   20   50 1
    50   21   51 1
    51   21   52 1
    52   22   23 ar
    53   23   24 ar
    54   23   53 1
    55   24   25 ar
##########                 Name:     ZINC000479586867
##########          Protonation:                 none
##########               SMILES:   C(=C/c1ccccc1)\C[NH2+][C@H](Cc1ccccn1)c1ccccc1
##########            Long Name:   NO_LONG_NAME
##########          FlexRecCode: 1
##########               Number:                 2079
##########   Ligand Source File: /nfs/db/export/3D/DJ/ADRO/DJADRO.xbo.db2.gz
##########                 Rank:                    1
##########               Setnum:                   67
##########             Matchnum:                    1
##########                Cloud:                    1
##########        Electrostatic:           -40.407421
##########                 Gist:             0.000000
##########        Van der Waals:           -31.649042
##########  Ligand Polar Desolv:            10.559818
########## Ligand Apolar Desolv:            -7.772233
##########      Internal Energy:             0.000000
##########      Receptor Energy:             0.000000
########## Receptor Desolvation:             0.000000
########## Receptor Hydrophobic:             0.000000
##########         Total Energy:           -69.268883
##########        Ligand Charge:             1.000000
##########            Arbitrary:    +999.9990
##########        Ligand Energy:             0.000000

@<TRIPOS>MOLECULE
 ZINC000479586867      none
   47    49     0     0     0



@<TRIPOS>ATOM
      1 C1        -15.5939    15.6573   -16.8294 C.2        1  LIG1  -0.2500
      2 C2        -15.9557    14.5009   -16.2915 C.2        1  LIG1  -0.0200
      3 C3        -15.2645    13.9984   -15.0853 C.ar       1  LIG1  -0.1000
      4 C4        -14.0001    14.4833   -14.7493 C.ar       1  LIG1  -0.1000
      5 C5        -13.3603    14.0104   -13.6221 C.ar       1  LIG1  -0.1200
      6 C6        -13.9697    13.0570   -12.8260 C.ar       1  LIG1  -0.1000
      7 C7        -15.2231    12.5717   -13.1540 C.ar       1  LIG1  -0.1200
      8 C8        -15.8763    13.0415   -14.2749 C.ar       1  LIG1  -0.0900
      9 C9        -16.2985    16.1695   -18.0591 C.3        1  LIG1   0.0400
     10 N1        -17.7274    16.3454   -17.7671 N.4        1  LIG1  -0.5000
     11 H1        -18.1266    15.4596   -17.4951 H          1  LIG1   0.4200
     12 H2        -17.8378    17.0091   -17.0152 H          1  LIG1   0.4300
     13 C10       -18.4143    16.8447   -18.9658 C.3        1  LIG1   0.0900
     14 H3        -18.0179    16.3416   -19.8478 H          1  LIG1   0.1400
     15 C11       -18.1867    18.3523   -19.0933 C.3        1  LIG1  -0.0800
     16 C12       -18.4445    18.7808   -20.5149 C.ar       1  LIG1   0.1000
     17 C13       -19.7144    19.1773   -20.8889 C.ar       1  LIG1  -0.1500
     18 C14       -19.9412    19.5701   -22.1992 C.ar       1  LIG1  -0.0600
     19 C15       -18.8773    19.5492   -23.0878 C.ar       1  LIG1  -0.1600
     20 C16       -17.6347    19.1403   -22.6413 C.ar       1  LIG1   0.1200
     21 N2        -17.4547    18.7782   -21.3861 N.ar       1  LIG1  -0.5300
     22 C17       -19.8911    16.5675   -18.8506 C.ar       1  LIG1  -0.1400
     23 C18       -20.6435    16.3455   -19.9889 C.ar       1  LIG1  -0.1200
     24 C19       -21.9981    16.0913   -19.8833 C.ar       1  LIG1  -0.1000
     25 C20       -22.6003    16.0585   -18.6395 C.ar       1  LIG1  -0.0900
     26 C21       -21.8478    16.2796   -17.5012 C.ar       1  LIG1  -0.1100
     27 C22       -20.4923    16.5296   -17.6065 C.ar       1  LIG1  -0.0900
     28 H4        -14.7973    16.2344   -16.3838 H          1  LIG1   0.1400
     29 H5        -16.7553    13.9259   -16.7346 H          1  LIG1   0.1300
     30 H6        -13.5231    15.2271   -15.3703 H          1  LIG1   0.1200
     31 H7        -12.3816    14.3848   -13.3609 H          1  LIG1   0.1300
     32 H8        -13.4645    12.6895   -11.9449 H          1  LIG1   0.1300
     33 H9        -15.6930    11.8270   -12.5288 H          1  LIG1   0.1300
     34 H10       -16.8549    12.6623   -14.5296 H          1  LIG1   0.1300
     35 H11       -15.8672    17.1264   -18.3530 H          1  LIG1   0.1300
     36 H12       -16.1793    15.4524   -18.8714 H          1  LIG1   0.1300
     37 H13       -18.8672    18.8803   -18.4254 H          1  LIG1   0.1300
     38 H14       -17.1572    18.5884   -18.8237 H          1  LIG1   0.1100
     39 H15       -20.5202    19.1808   -20.1697 H          1  LIG1   0.1500
     40 H16       -20.9233    19.8847   -22.5201 H          1  LIG1   0.1500
     41 H17       -19.0176    19.8482   -24.1160 H          1  LIG1   0.1500
     42 H18       -16.8008    19.1208   -23.3272 H          1  LIG1   0.1700
     43 H19       -20.1729    16.3712   -20.9607 H          1  LIG1   0.1200
     44 H20       -22.5860    15.9187   -20.7727 H          1  LIG1   0.1400
     45 H21       -23.6588    15.8606   -18.5571 H          1  LIG1   0.1400
     46 H22       -22.3184    16.2543   -16.5294 H          1  LIG1   0.1400
     47 H23       -19.9044    16.7022   -16.7171 H          1  LIG1   0.1300
@<TRIPOS>BOND
     1    1    2 2
     2    1    9 1
     3    1   28 1
     4    2    3 1
     5    2   29 1
     6    3    8 ar
     7    3    4 ar
     8    4    5 ar
     9    4   30 1
    10    5    6 ar
    11    5   31 1
    12    6    7 ar
    13    6   32 1
    14    7    8 ar
    15    7   33 1
    16    8   34 1
    17    9   10 1
    18    9   35 1
    19    9   36 1
    20   10   11 1
    21   10   12 1
    22   10   13 1
    23   13   14 1
    24   13   15 1
    25   13   22 1
    26   15   16 1
    27   15   37 1
    28   15   38 1
    29   16   21 ar
    30   16   17 ar
    31   17   18 ar
    32   17   39 1
    33   18   19 ar
    34   18   40 1
    35   19   20 ar
    36   19   41 1
    37   20   21 ar
    38   20   42 1
    39   22   27 ar
    40   22   23 ar
    41   23   24 ar
    42   23   43 1
    43   24   25 ar
    44   24   44 1
    45   25   26 ar
    46   25   45 1
    47   26   27 ar
    48   26   46 1
    49   27   47 1
##########                 Name:     ZINC000535204421
##########          Protonation:                 none
##########               SMILES:   CC1=CC[N@@H+](CC(=O)NCC2=CC=C(F)C=C2C(F)(F)F)CC1
##########            Long Name:   NO_LONG_NAME
##########          FlexRecCode: 1
##########               Number:                 7631
##########   Ligand Source File: /nfs/db/export/3D/EG/ADMO/EGADMO.xaca.db2.gz
##########                 Rank:                    1
##########               Setnum:                   23
##########             Matchnum:                    1
##########                Cloud:                    1
##########        Electrostatic:           -40.512123
##########                 Gist:             0.000000
##########        Van der Waals:           -30.184261
##########  Ligand Polar Desolv:            12.639192
########## Ligand Apolar Desolv:            -5.881115
##########      Internal Energy:             0.000000
##########      Receptor Energy:             0.000000
########## Receptor Desolvation:             0.000000
########## Receptor Hydrophobic:             0.000000
##########         Total Energy:           -63.938305
##########        Ligand Charge:             1.000000
##########            Arbitrary:    +999.9990
##########        Ligand Energy:             0.000000

@<TRIPOS>MOLECULE
 ZINC000535204421      none
   42    43     0     0     0



@<TRIPOS>ATOM
      1 C1        -22.6597    15.4674   -18.5415 C.3        1  LIG1  -0.1300
      2 C2        -21.2662    16.0358   -18.4610 C.2        1  LIG1  -0.1000
      3 C3        -20.5041    15.9712   -19.5109 C.2        1  LIG1  -0.2000
      4 C4        -19.1034    16.5101   -19.5438 C.3        1  LIG1   0.0200
      5 N1        -18.5949    16.6991   -18.1801 N.4        1  LIG1  -0.3700
      6 H1        -18.4778    15.8008   -17.7357 H          1  LIG1   0.4300
      7 C5        -17.3026    17.3957   -18.2291 C.3        1  LIG1  -0.0300
      8 C6        -16.5576    17.1639   -16.9397 C.2        1  LIG1   0.5000
      9 O1        -16.7042    17.9275   -16.0090 O.2        1  LIG1  -0.5200
     10 N2        -15.7285    16.1079   -16.8210 N.am       1  LIG1  -0.7000
     11 C7        -15.0044    15.8826   -15.5677 C.3        1  LIG1   0.1400
     12 C8        -15.3873    14.5399   -15.0007 C.ar       1  LIG1  -0.0900
     13 C9        -16.2937    13.7403   -15.6712 C.ar       1  LIG1  -0.0700
     14 C10       -16.6454    12.5083   -15.1523 C.ar       1  LIG1  -0.1200
     15 C11       -16.0894    12.0754   -13.9608 C.ar       1  LIG1   0.1200
     16 F1        -16.4320    10.8713   -13.4530 F          1  LIG1  -0.1200
     17 C12       -15.1813    12.8773   -13.2899 C.ar       1  LIG1  -0.1100
     18 C13       -14.8273    14.1062   -13.8132 C.ar       1  LIG1  -0.1400
     19 C14       -13.8391    14.9791   -13.0835 C.3        1  LIG1   0.5100
     20 F2        -13.6510    16.1678   -13.7969 F          1  LIG1  -0.1700
     21 F3        -14.3309    15.2740   -11.8073 F          1  LIG1  -0.1800
     22 F4        -12.6181    14.3060   -12.9685 F          1  LIG1  -0.1700
     23 C15       -19.5623    17.5038   -17.4169 C.3        1  LIG1   0.0000
     24 C16       -20.8145    16.6609   -17.1701 C.3        1  LIG1  -0.1200
     25 H2        -22.8270    15.0555   -19.5367 H          1  LIG1   0.0800
     26 H3        -22.7739    14.6786   -17.7981 H          1  LIG1   0.0800
     27 H4        -23.3859    16.2568   -18.3483 H          1  LIG1   0.0800
     28 H5        -20.8971    15.5068   -20.4033 H          1  LIG1   0.1500
     29 H6        -18.4596    15.8087   -20.0745 H          1  LIG1   0.1500
     30 H7        -19.0974    17.4667   -20.0664 H          1  LIG1   0.1300
     31 H8        -16.7143    17.0119   -19.0627 H          1  LIG1   0.1600
     32 H9        -17.4707    18.4642   -18.3645 H          1  LIG1   0.1600
     33 H10       -15.6114    15.4971   -17.5655 H          1  LIG1   0.4100
     34 H11       -13.9315    15.9035   -15.7591 H          1  LIG1   0.1000
     35 H12       -15.2614    16.6651   -14.8537 H          1  LIG1   0.1000
     36 H13       -16.7277    14.0784   -16.6005 H          1  LIG1   0.1500
     37 H14       -17.3539    11.8839   -15.6762 H          1  LIG1   0.1600
     38 H15       -14.7472    12.5407   -12.3601 H          1  LIG1   0.1600
     39 H16       -19.1232    17.7968   -16.4633 H          1  LIG1   0.1400
     40 H17       -19.8305    18.3926   -17.9881 H          1  LIG1   0.1300
     41 H18       -21.6064    17.2953   -16.7721 H          1  LIG1   0.1300
     42 H19       -20.5860    15.8729   -16.4526 H          1  LIG1   0.1100
@<TRIPOS>BOND
     1    1    2 1
     2    1   25 1
     3    1   26 1
     4    1   27 1
     5    2   24 1
     6    2    3 2
     7    3    4 1
     8    3   28 1
     9    4    5 1
    10    4   29 1
    11    4   30 1
    12    5    6 1
    13    5    7 1
    14    5   23 1
    15    7    8 1
    16    7   31 1
    17    7   32 1
    18    8    9 2
    19    8   10 am
    20   10   11 1
    21   10   33 1
    22   11   12 1
    23   11   34 1
    24   11   35 1
    25   12   18 ar
    26   12   13 ar
    27   13   14 ar
    28   13   36 1
    29   14   15 ar
    30   14   37 1
    31   15   16 1
    32   15   17 ar
    33   17   18 ar
    34   17   38 1
    35   18   19 1
    36   19   20 1
    37   19   21 1
    38   19   22 1
    39   23   24 1
    40   23   39 1
    41   23   40 1
    42   24   41 1
    43   24   42 1
##########                 Name:     ZINC000270857312
##########          Protonation:                 none
##########               SMILES:   CC[C@@H]1C[N@@H+]([C@H](C)C2=NN=C(C3=CC=C([N+](=O)[O-])C=C3)O2)C[C@@H]1O
##########            Long Name:   NO_LONG_NAME
##########          FlexRecCode: 1
##########               Number:                13078
##########   Ligand Source File: /nfs/db/export/3D/EE/BDRO/EEBDRO.xan.db2.gz
##########                 Rank:                    1
##########               Setnum:                   27
##########             Matchnum:                    1
##########                Cloud:                    1
##########        Electrostatic:           -40.875713
##########                 Gist:             0.000000
##########        Van der Waals:           -36.482574
##########  Ligand Polar Desolv:            16.257761
########## Ligand Apolar Desolv:            -2.058277
##########      Internal Energy:             0.000000
##########      Receptor Energy:             0.000000
########## Receptor Desolvation:             0.000000
########## Receptor Hydrophobic:             0.000000
##########         Total Energy:           -63.158806
##########        Ligand Charge:             1.000000
##########            Arbitrary:    +999.9990
##########        Ligand Energy:             0.000000

@<TRIPOS>MOLECULE
 ZINC000270857312      none
   45    47     0     0     0



@<TRIPOS>ATOM
      1 C1        -23.1846    17.0807   -19.2861 C.3        1  LIG1  -0.1600
      2 C2        -21.8288    16.5835   -19.7918 C.3        1  LIG1  -0.1100
      3 C3        -20.7127    17.4261   -19.1711 C.3        1  LIG1  -0.1000
      4 H1        -20.8329    18.4738   -19.4463 H          1  LIG1   0.1300
      5 C4        -19.3359    16.9083   -19.6268 C.3        1  LIG1  -0.0100
      6 N1        -18.6189    16.4575   -18.4144 N.4        1  LIG1  -0.3900
      7 H2        -18.7631    15.4691   -18.2722 H          1  LIG1   0.4400
      8 C5        -17.1840    16.7480   -18.5369 C.3        1  LIG1   0.1500
      9 H3        -17.0398    17.8216   -18.6585 H          1  LIG1   0.1700
     10 C6        -16.6177    16.0162   -19.7554 C.3        1  LIG1  -0.1800
     11 C7        -16.4693    16.2827   -17.2945 C.2        1  LIG1   0.1000
     12 N2        -15.7801    17.0295   -16.4777 N.2        1  LIG1  -0.2400
     13 N3        -15.3090    16.3039   -15.5254 N.2        1  LIG1  -0.2500
     14 C8        -15.6846    15.0591   -15.7034 C.2        1  LIG1   0.2500
     15 C9        -15.3550    13.9105   -14.8328 C.ar       1  LIG1   0.0000
     16 C10       -14.2723    13.9841   -13.9554 C.ar       1  LIG1  -0.0700
     17 C11       -13.9701    12.9087   -13.1458 C.ar       1  LIG1  -0.0500
     18 C12       -14.7379    11.7593   -13.2021 C.ar       1  LIG1  -0.0100
     19 N4        -14.4080    10.6093   -12.3304 N.pl3      1  LIG1   0.0100
     20 O1        -13.4622    10.6761   -11.5659 O.2        1  LIG1  -0.1400
     21 O2        -15.0817     9.5955   -12.3787 O.2        1  LIG1  -0.1400
     22 C13       -15.8127    11.6798   -14.0698 C.ar       1  LIG1  -0.0500
     23 C14       -16.1287    12.7501   -14.8810 C.ar       1  LIG1  -0.0600
     24 O3        -16.4318    15.0239   -16.8250 O.3        1  LIG1  -0.2000
     25 C15       -19.2044    17.2280   -17.2876 C.3        1  LIG1  -0.0500
     26 C16       -20.7158    17.2713   -17.6330 C.3        1  LIG1   0.0900
     27 H4        -21.1957    18.1270   -17.1579 H          1  LIG1   0.1200
     28 O4        -21.3580    16.0546   -17.2461 O.3        1  LIG1  -0.5400
     29 H5        -23.9797    16.4805   -19.7284 H          1  LIG1   0.0600
     30 H6        -23.2224    16.9911   -18.2005 H          1  LIG1   0.0600
     31 H7        -23.3172    18.1250   -19.5692 H          1  LIG1   0.0600
     32 H8        -21.6961    15.5393   -19.5088 H          1  LIG1   0.0800
     33 H9        -21.7909    16.6733   -20.8775 H          1  LIG1   0.0700
     34 H10       -19.4626    16.0729   -20.3155 H          1  LIG1   0.1400
     35 H11       -18.7791    17.7107   -20.1108 H          1  LIG1   0.1400
     36 H12       -15.5532    16.2317   -19.8464 H          1  LIG1   0.1100
     37 H13       -16.7621    14.9426   -19.6338 H          1  LIG1   0.1000
     38 H14       -17.1346    16.3529   -20.6541 H          1  LIG1   0.1100
     39 H15       -13.6721    14.8808   -13.9106 H          1  LIG1   0.1600
     40 H16       -13.1322    12.9643   -12.4666 H          1  LIG1   0.1700
     41 H17       -16.4079    10.7795   -14.1092 H          1  LIG1   0.1700
     42 H18       -16.9682    12.6869   -15.5576 H          1  LIG1   0.1700
     43 H19       -19.0401    16.7115   -16.3419 H          1  LIG1   0.1300
     44 H20       -18.7898    18.2356   -17.2540 H          1  LIG1   0.1400
     45 H21       -20.9381    15.2587   -17.5997 H          1  LIG1   0.4000
@<TRIPOS>BOND
     1    1    2 1
     2    1   29 1
     3    1   30 1
     4    1   31 1
     5    2    3 1
     6    2   32 1
     7    2   33 1
     8    3    4 1
     9    3   26 1
    10    3    5 1
    11    5    6 1
    12    5   34 1
    13    5   35 1
    14    6    7 1
    15    6    8 1
    16    6   25 1
    17    8    9 1
    18    8   10 1
    19    8   11 1
    20   10   36 1
    21   10   37 1
    22   10   38 1
    23   11   24 1
    24   11   12 2
    25   12   13 1
    26   13   14 2
    27   14   15 1
    28   14   24 1
    29   15   23 ar
    30   15   16 ar
    31   16   17 ar
    32   16   39 1
    33   17   18 ar
    34   17   40 1
    35   18   19 1
    36   18   22 ar
    37   19   20 2
    38   19   21 2
    39   22   23 ar
    40   22   41 1
    41   23   42 1
    42   25   26 1
    43   25   43 1
    44   25   44 1
    45   26   27 1
    46   26   28 1
    47   28   45 1
##########                 Name:     ZINC000092886759
##########          Protonation:                 none
##########               SMILES:   NC1=[NH+]C(NCCCCOC2=CC=C(F)C=C2)=CC(N2C=CC=N2)=N1
##########            Long Name:   NO_LONG_NAME
##########          FlexRecCode: 1
##########               Number:                11273
##########   Ligand Source File: /nfs/db/export/3D/EF/ADRO/EFADRO.xaag.db2.gz
##########                 Rank:                    1
##########               Setnum:                  160
##########             Matchnum:                    1
##########                Cloud:                    1
##########        Electrostatic:           -45.717258
##########                 Gist:             0.000000
##########        Van der Waals:           -30.721849
##########  Ligand Polar Desolv:            17.801815
########## Ligand Apolar Desolv:            -4.873501
##########      Internal Energy:             0.000000
##########      Receptor Energy:             0.000000
########## Receptor Desolvation:             0.000000
########## Receptor Hydrophobic:             0.000000
##########         Total Energy:           -63.510796
##########        Ligand Charge:             1.000000
##########            Arbitrary:    +999.9990
##########        Ligand Energy:             0.000000

@<TRIPOS>MOLECULE
 ZINC000092886759      none
   45    47     0     0     0



@<TRIPOS>ATOM
      1 N1        -17.1664    11.5794   -15.7653 N.pl3      1  LIG1  -0.7900
      2 C1        -16.4540    12.7537   -15.5961 C.ar       1  LIG1   0.6900
      3 N2        -16.7475    13.8006   -16.3522 N.ar       1  LIG1  -0.5900
      4 H1        -17.4549    13.7321   -17.0123 H          1  LIG1   0.4400
      5 C2        -16.0835    14.9456   -16.2166 C.ar       1  LIG1   0.5100
      6 N3        -16.3966    16.0373   -17.0106 N.pl3      1  LIG1  -0.6800
      7 C3        -15.4249    17.1200   -17.1835 C.3        1  LIG1   0.1100
      8 C4        -16.0153    18.1937   -18.0997 C.3        1  LIG1  -0.1300
      9 C5        -16.3412    17.5785   -19.4623 C.3        1  LIG1  -0.1200
     10 C6        -16.9315    18.6523   -20.3785 C.3        1  LIG1   0.0600
     11 O1        -15.9835    19.7083   -20.5470 O.3        1  LIG1  -0.3100
     12 C7        -16.3539    20.7496   -21.3385 C.ar       1  LIG1   0.1200
     13 C8        -15.3960    21.4524   -22.0544 C.ar       1  LIG1  -0.1800
     14 C9        -15.7739    22.5105   -22.8585 C.ar       1  LIG1  -0.1100
     15 C10       -17.1079    22.8695   -22.9496 C.ar       1  LIG1   0.0700
     16 F1        -17.4759    23.9047   -23.7359 F          1  LIG1  -0.1400
     17 C11       -18.0652    22.1686   -22.2361 C.ar       1  LIG1  -0.1100
     18 C12       -17.6908    21.1065   -21.4357 C.ar       1  LIG1  -0.1200
     19 C13       -15.0692    15.0319   -15.2650 C.ar       1  LIG1  -0.3100
     20 C14       -14.7907    13.9120   -14.4916 C.ar       1  LIG1   0.5600
     21 N4        -13.7835    13.9526   -13.5256 N.pl3      1  LIG1  -0.3400
     22 C15       -13.4118    12.9288   -12.7128 C.2        1  LIG1   0.0700
     23 C16       -12.4054    13.3749   -11.9271 C.2        1  LIG1  -0.2300
     24 C17       -12.1518    14.7093   -12.2661 C.2        1  LIG1   0.1100
     25 N5        -12.9716    15.0539   -13.2252 N.2        1  LIG1  -0.2800
     26 N6        -15.5000    12.8028   -14.6787 N.ar       1  LIG1  -0.5800
     27 H2        -16.9659    10.8067   -15.2141 H          1  LIG1   0.4500
     28 H3        -17.8691    11.5302   -16.4322 H          1  LIG1   0.4300
     29 H4        -17.2591    16.0848   -17.4520 H          1  LIG1   0.4200
     30 H5        -15.1927    17.5583   -16.2128 H          1  LIG1   0.1000
     31 H6        -14.5136    16.7224   -17.6299 H          1  LIG1   0.1000
     32 H7        -16.9267    18.5913   -17.6533 H          1  LIG1   0.0800
     33 H8        -15.2922    18.9992   -18.2283 H          1  LIG1   0.0800
     34 H9        -15.4299    17.1808   -19.9087 H          1  LIG1   0.0800
     35 H10       -17.0643    16.7731   -19.3336 H          1  LIG1   0.0800
     36 H11       -17.1637    18.2142   -21.3491 H          1  LIG1   0.0700
     37 H12       -17.8428    19.0500   -19.9319 H          1  LIG1   0.0700
     38 H13       -14.3552    21.1730   -21.9829 H          1  LIG1   0.1400
     39 H14       -15.0283    23.0579   -23.4158 H          1  LIG1   0.1400
     40 H15       -19.1055    22.4495   -22.3084 H          1  LIG1   0.1500
     41 H16       -18.4377    20.5598   -20.8792 H          1  LIG1   0.1400
     42 H17       -14.5126    15.9479   -15.1320 H          1  LIG1   0.1900
     43 H18       -13.8422    11.9384   -12.6970 H          1  LIG1   0.2000
     44 H19       -11.8886    12.8026   -11.1709 H          1  LIG1   0.1700
     45 H20       -11.4041    15.3448   -11.8150 H          1  LIG1   0.2100
@<TRIPOS>BOND
     1    1    2 1
     2    1   27 1
     3    1   28 1
     4    2   26 ar
     5    2    3 ar
     6    3    4 1
     7    3    5 ar
     8    5    6 1
     9    5   19 ar
    10    6    7 1
    11    6   29 1
    12    7    8 1
    13    7   30 1
    14    7   31 1
    15    8    9 1
    16    8   32 1
    17    8   33 1
    18    9   10 1
    19    9   34 1
    20    9   35 1
    21   10   11 1
    22   10   36 1
    23   10   37 1
    24   11   12 1
    25   12   18 ar
    26   12   13 ar
    27   13   14 ar
    28   13   38 1
    29   14   15 ar
    30   14   39 1
    31   15   16 1
    32   15   17 ar
    33   17   18 ar
    34   17   40 1
    35   18   41 1
    36   19   20 ar
    37   19   42 1
    38   20   21 1
    39   20   26 ar
    40   21   25 1
    41   21   22 1
    42   22   23 2
    43   22   43 1
    44   23   24 1
    45   23   44 1
    46   24   25 2
    47   24   45 1
##########                 Name:     ZINC000186235743
##########          Protonation:                 none
##########               SMILES:   CCOC(=O)C1=NN(C)C=C1C[N@H+]1C[C@@H](C2=CC=CC=C2C)C[C@@H]1C
##########            Long Name:   NO_LONG_NAME
##########          FlexRecCode: 1
##########               Number:                 9824
##########   Ligand Source File: /nfs/db/export/3D/EG/ADMO/EGADMO.xbic.db2.gz
##########                 Rank:                    1
##########               Setnum:                   14
##########             Matchnum:                    1
##########                Cloud:                    1
##########        Electrostatic:           -40.841873
##########                 Gist:             0.000000
##########        Van der Waals:           -35.725204
##########  Ligand Polar Desolv:            14.558373
########## Ligand Apolar Desolv:            -6.707858
##########      Internal Energy:             0.000000
##########      Receptor Energy:             0.000000
########## Receptor Desolvation:             0.000000
########## Receptor Hydrophobic:             0.000000
##########         Total Energy:           -68.716560
##########        Ligand Charge:             1.000000
##########            Arbitrary:    +999.9990
##########        Ligand Energy:             0.000000

@<TRIPOS>MOLECULE
 ZINC000186235743      none
   53    55     0     0     0



@<TRIPOS>ATOM
      1 C1        -11.7277    20.8224   -15.9596 C.3        1  LIG1  -0.1600
      2 C2        -13.2010    20.5973   -16.3058 C.3        1  LIG1   0.0600
      3 O1        -13.5926    19.2571   -15.9073 O.3        1  LIG1  -0.3300
      4 C3        -14.8690    18.8969   -16.1441 C.2        1  LIG1   0.5600
      5 O2        -15.6340    19.6813   -16.6692 O.2        1  LIG1  -0.5100
      6 C4        -15.3380    17.5497   -15.7656 C.2        1  LIG1   0.0100
      7 N1        -14.6241    16.6040   -15.1874 N.2        1  LIG1  -0.2100
      8 N2        -15.3465    15.5582   -15.0010 N.pl3      1  LIG1  -0.2600
      9 C5        -14.8781    14.3160   -14.3816 C.3        1  LIG1   0.0700
     10 C6        -16.5998    15.7686   -15.4577 C.2        1  LIG1   0.0400
     11 C7        -16.6415    17.0292   -15.9489 C.2        1  LIG1  -0.2200
     12 C8        -17.8237    17.7277   -16.5696 C.3        1  LIG1   0.0900
     13 N3        -18.4965    16.8153   -17.5039 N.4        1  LIG1  -0.3900
     14 H1        -18.5253    15.8827   -17.1201 H          1  LIG1   0.4300
     15 C9        -19.8732    17.2956   -17.7868 C.3        1  LIG1   0.0000
     16 C10       -20.2157    16.6155   -19.1360 C.3        1  LIG1  -0.0700
     17 H2        -20.5343    15.5850   -18.9787 H          1  LIG1   0.1100
     18 C11       -21.2768    17.3931   -19.8712 C.ar       1  LIG1  -0.1000
     19 C12       -21.0460    18.7077   -20.2305 C.ar       1  LIG1  -0.1100
     20 C13       -22.0194    19.4212   -20.9048 C.ar       1  LIG1  -0.1200
     21 C14       -23.2233    18.8198   -21.2200 C.ar       1  LIG1  -0.1000
     22 C15       -23.4539    17.5046   -20.8614 C.ar       1  LIG1  -0.1100
     23 C16       -22.4790    16.7900   -20.1910 C.ar       1  LIG1  -0.0700
     24 C17       -22.7304    15.3565   -19.8001 C.3        1  LIG1  -0.1300
     25 C18       -18.8713    16.6622   -19.8979 C.3        1  LIG1  -0.1300
     26 C19       -17.7944    16.8096   -18.8056 C.3        1  LIG1   0.0300
     27 H3        -17.2552    17.7474   -18.9399 H          1  LIG1   0.1400
     28 C20       -16.8184    15.6333   -18.8738 C.3        1  LIG1  -0.1800
     29 H4        -11.4338    21.8285   -16.2587 H          1  LIG1   0.0700
     30 H5        -11.5852    20.7065   -14.8852 H          1  LIG1   0.0700
     31 H6        -11.1146    20.0925   -16.4882 H          1  LIG1   0.0900
     32 H7        -13.8140    21.3272   -15.7772 H          1  LIG1   0.0800
     33 H8        -13.3435    20.7131   -17.3802 H          1  LIG1   0.0800
     34 H9        -15.6953    13.5956   -14.3490 H          1  LIG1   0.1000
     35 H10       -14.0552    13.9058   -14.9672 H          1  LIG1   0.1100
     36 H11       -14.5350    14.5223   -13.3678 H          1  LIG1   0.1100
     37 H12       -17.4179    15.0639   -15.4319 H          1  LIG1   0.2000
     38 H13       -18.5215    18.0259   -15.7870 H          1  LIG1   0.1400
     39 H14       -17.4819    18.6119   -17.1077 H          1  LIG1   0.1400
     40 H15       -20.5618    16.9710   -17.0067 H          1  LIG1   0.1300
     41 H16       -19.8889    18.3808   -17.8880 H          1  LIG1   0.1300
     42 H17       -20.1052    19.1775   -19.9841 H          1  LIG1   0.1200
     43 H18       -21.8393    20.4485   -21.1850 H          1  LIG1   0.1300
     44 H19       -23.9840    19.3773   -21.7461 H          1  LIG1   0.1300
     45 H20       -24.3947    17.0348   -21.1074 H          1  LIG1   0.1300
     46 H21       -23.7239    15.0576   -20.1343 H          1  LIG1   0.0800
     47 H22       -21.9821    14.7161   -20.2669 H          1  LIG1   0.0700
     48 H23       -22.6670    15.2590   -18.7163 H          1  LIG1   0.0700
     49 H24       -18.7197    15.7377   -20.4549 H          1  LIG1   0.1100
     50 H25       -18.8477    17.5189   -20.5715 H          1  LIG1   0.1100
     51 H26       -16.3078    15.6400   -19.8367 H          1  LIG1   0.1000
     52 H27       -16.0846    15.7230   -18.0728 H          1  LIG1   0.0900
     53 H28       -17.3676    14.6986   -18.7604 H          1  LIG1   0.0800
@<TRIPOS>BOND
     1    1    2 1
     2    1   29 1
     3    1   30 1
     4    1   31 1
     5    2    3 1
     6    2   32 1
     7    2   33 1
     8    3    4 1
     9    4    5 2
    10    4    6 1
    11    6   11 1
    12    6    7 2
    13    7    8 1
    14    8    9 1
    15    8   10 1
    16    9   34 1
    17    9   35 1
    18    9   36 1
    19   10   11 2
    20   10   37 1
    21   11   12 1
    22   12   13 1
    23   12   38 1
    24   12   39 1
    25   13   14 1
    26   13   26 1
    27   13   15 1
    28   15   16 1
    29   15   40 1
    30   15   41 1
    31   16   17 1
    32   16   18 1
    33   16   25 1
    34   18   23 ar
    35   18   19 ar
    36   19   20 ar
    37   19   42 1
    38   20   21 ar
    39   20   43 1
    40   21   22 ar
    41   21   44 1
    42   22   23 ar
    43   22   45 1
    44   23   24 1
    45   24   46 1
    46   24   47 1
    47   24   48 1
    48   25   26 1
    49   25   49 1
    50   25   50 1
    51   26   27 1
    52   26   28 1
    53   28   51 1
    54   28   52 1
    55   28   53 1
##########                 Name:     ZINC000661526457
##########          Protonation:                 none
##########               SMILES:   COC1=CC=CC=C1NC(=O)C[NH2+][C@@H]1CC2=CC=CC=C2[C@@H]1C
##########            Long Name:   NO_LONG_NAME
##########          FlexRecCode: 1
##########               Number:                 9822
##########   Ligand Source File: /nfs/db/export/3D/DF/ADRO/DFADRO.xbbf.db2.gz
##########                 Rank:                    1
##########               Setnum:                   49
##########             Matchnum:                    1
##########                Cloud:                    1
##########        Electrostatic:           -46.773071
##########                 Gist:             0.000000
##########        Van der Waals:           -28.280956
##########  Ligand Polar Desolv:            16.981342
########## Ligand Apolar Desolv:            -5.050289
##########      Internal Energy:             0.000000
##########      Receptor Energy:             0.000000
########## Receptor Desolvation:             0.000000
########## Receptor Hydrophobic:             0.000000
##########         Total Energy:           -63.122978
##########        Ligand Charge:             1.000000
##########            Arbitrary:    +999.9990
##########        Ligand Energy:             0.000000

@<TRIPOS>MOLECULE
 ZINC000661526457      none
   46    48     0     0     0



@<TRIPOS>ATOM
      1 C1        -15.7161    11.5015   -16.4118 C.3        1  LIG1   0.0300
      2 O1        -16.4075    12.1809   -15.3619 O.3        1  LIG1  -0.3200
      3 C2        -15.7308    13.1661   -14.7134 C.ar       1  LIG1   0.1100
      4 C3        -14.9697    12.8658   -13.5959 C.ar       1  LIG1  -0.1900
      5 C4        -14.2825    13.8688   -12.9372 C.ar       1  LIG1  -0.0800
      6 C5        -14.3520    15.1727   -13.3910 C.ar       1  LIG1  -0.1400
      7 C6        -15.1095    15.4807   -14.5057 C.ar       1  LIG1  -0.0900
      8 C7        -15.7968    14.4792   -15.1749 C.ar       1  LIG1   0.0900
      9 N1        -16.5649    14.7888   -16.3052 N.am       1  LIG1  -0.6300
     10 C8        -16.2052    15.8125   -17.1047 C.2        1  LIG1   0.5000
     11 O2        -15.2166    16.4657   -16.8456 O.2        1  LIG1  -0.5100
     12 C9        -17.0313    16.1456   -18.3202 C.3        1  LIG1  -0.0300
     13 N2        -18.3993    16.4833   -17.9050 N.4        1  LIG1  -0.4900
     14 H1        -18.8092    15.6961   -17.4252 H          1  LIG1   0.4400
     15 H2        -18.3761    17.2797   -17.2858 H          1  LIG1   0.4300
     16 C10       -19.2046    16.8079   -19.0900 C.3        1  LIG1   0.0200
     17 H3        -18.9683    16.1339   -19.9134 H          1  LIG1   0.1600
     18 C11       -18.9970    18.2790   -19.5084 C.3        1  LIG1  -0.0900
     19 C12       -20.3450    18.7393   -20.0204 C.ar       1  LIG1  -0.1100
     20 C13       -20.6830    19.8315   -20.8011 C.ar       1  LIG1  -0.0900
     21 C14       -22.0008    20.0555   -21.1500 C.ar       1  LIG1  -0.1000
     22 C15       -22.9857    19.1870   -20.7186 C.ar       1  LIG1  -0.1000
     23 C16       -22.6504    18.0968   -19.9394 C.ar       1  LIG1  -0.0900
     24 C17       -21.3302    17.8706   -19.5887 C.ar       1  LIG1  -0.1000
     25 C18       -20.7114    16.7621   -18.7587 C.3        1  LIG1  -0.0600
     26 H4        -21.1345    15.7978   -19.0401 H          1  LIG1   0.1100
     27 C19       -20.9371    17.0254   -17.2685 C.3        1  LIG1  -0.1800
     28 H5        -16.3677    10.7421   -16.8440 H          1  LIG1   0.1100
     29 H6        -15.4319    12.2179   -17.1827 H          1  LIG1   0.0600
     30 H7        -14.8214    11.0264   -16.0097 H          1  LIG1   0.0600
     31 H8        -14.9132    11.8481   -13.2387 H          1  LIG1   0.1400
     32 H9        -13.6900    13.6329   -12.0655 H          1  LIG1   0.1300
     33 H10       -13.8136    15.9527   -12.8733 H          1  LIG1   0.1300
     34 H11       -15.1626    16.5003   -14.8577 H          1  LIG1   0.1500
     35 H12       -17.3556    14.2663   -16.5123 H          1  LIG1   0.4200
     36 H13       -16.5885    16.9961   -18.8384 H          1  LIG1   0.1600
     37 H14       -17.0565    15.2855   -18.9892 H          1  LIG1   0.1700
     38 H15       -18.6943    18.8773   -18.6492 H          1  LIG1   0.1000
     39 H16       -18.2495    18.3454   -20.2988 H          1  LIG1   0.1100
     40 H17       -19.9139    20.5107   -21.1384 H          1  LIG1   0.1300
     41 H18       -22.2613    20.9086   -21.7590 H          1  LIG1   0.1300
     42 H19       -24.0164    19.3610   -20.9902 H          1  LIG1   0.1300
     43 H20       -23.4205    17.4189   -19.6023 H          1  LIG1   0.1300
     44 H21       -22.0045    16.9898   -17.0508 H          1  LIG1   0.0900
     45 H22       -20.4213    16.2645   -16.6829 H          1  LIG1   0.0700
     46 H23       -20.5463    18.0097   -17.0103 H          1  LIG1   0.0700
@<TRIPOS>BOND
     1    1    2 1
     2    1   28 1
     3    1   29 1
     4    1   30 1
     5    2    3 1
     6    3    8 ar
     7    3    4 ar
     8    4    5 ar
     9    4   31 1
    10    5    6 ar
    11    5   32 1
    12    6    7 ar
    13    6   33 1
    14    7    8 ar
    15    7   34 1
    16    8    9 1
    17    9   10 am
    18    9   35 1
    19   10   11 2
    20   10   12 1
    21   12   13 1
    22   12   36 1
    23   12   37 1
    24   13   14 1
    25   13   15 1
    26   13   16 1
    27   16   17 1
    28   16   25 1
    29   16   18 1
    30   18   19 1
    31   18   38 1
    32   18   39 1
    33   19   24 ar
    34   19   20 ar
    35   20   21 ar
    36   20   40 1
    37   21   22 ar
    38   21   41 1
    39   22   23 ar
    40   22   42 1
    41   23   24 ar
    42   23   43 1
    43   24   25 1
    44   25   26 1
    45   25   27 1
    46   27   44 1
    47   27   45 1
    48   27   46 1
##########                 Name:     ZINC000185496881
##########          Protonation:                 none
##########               SMILES:   O=C(NC[C@H](O)C[NH+]1CCCCC1)C(=O)N1CCC2=C(F)C=CC=C21
##########            Long Name:   NO_LONG_NAME
##########          FlexRecCode: 1
##########               Number:                 1742
##########   Ligand Source File: /nfs/db/export/3D/EC/ADRO/ECADRO.xats.db2.gz
##########                 Rank:                    1
##########               Setnum:                  141
##########             Matchnum:                    1
##########                Cloud:                    1
##########        Electrostatic:           -36.694305
##########                 Gist:             0.000000
##########        Van der Waals:           -37.089539
##########  Ligand Polar Desolv:            14.453217
########## Ligand Apolar Desolv:            -3.466100
##########      Internal Energy:             0.000000
##########      Receptor Energy:             0.000000
########## Receptor Desolvation:             0.000000
########## Receptor Hydrophobic:             0.000000
##########         Total Energy:           -62.796730
##########        Ligand Charge:             1.000000
##########            Arbitrary:    +999.9990
##########        Ligand Energy:             0.000000

@<TRIPOS>MOLECULE
 ZINC000185496881      none
   50    52     0     0     0



@<TRIPOS>ATOM
      1 O1        -16.6084    17.4713   -15.9581 O.2        1  LIG1  -0.5000
      2 C1        -15.5906    16.9086   -16.3048 C.2        1  LIG1   0.5200
      3 N1        -15.2928    16.8010   -17.6148 N.am       1  LIG1  -0.7000
      4 C2        -16.1978    17.3632   -18.6204 C.3        1  LIG1   0.0900
      5 C3        -17.5712    16.7003   -18.4980 C.3        1  LIG1   0.0700
      6 H1        -17.8184    16.5684   -17.4446 H          1  LIG1   0.1300
      7 O2        -17.5445    15.4262   -19.1443 O.3        1  LIG1  -0.5500
      8 C4        -18.6264    17.5871   -19.1622 C.3        1  LIG1  -0.0400
      9 N2        -19.9452    16.9508   -19.0447 N.4        1  LIG1  -0.3800
     10 H2        -19.8523    15.9570   -19.1930 H          1  LIG1   0.4300
     11 C5        -20.8496    17.5123   -20.0552 C.3        1  LIG1  -0.0100
     12 C6        -22.2002    16.7959   -19.9907 C.3        1  LIG1  -0.1500
     13 C7        -22.8072    16.9869   -18.5977 C.3        1  LIG1  -0.1400
     14 C8        -21.8228    16.4653   -17.5470 C.3        1  LIG1  -0.1500
     15 C9        -20.4869    17.1952   -17.7026 C.3        1  LIG1  -0.0100
     16 C10       -14.6648    16.3409   -15.2794 C.2        1  LIG1   0.5200
     17 O3        -13.7705    17.0239   -14.8246 O.2        1  LIG1  -0.4900
     18 N3        -14.8224    15.0700   -14.8593 N.am       1  LIG1  -0.5200
     19 C11       -15.8613    14.1517   -15.3334 C.3        1  LIG1   0.1100
     20 C12       -15.6232    12.8421   -14.5637 C.3        1  LIG1  -0.0900
     21 C13       -14.4277    13.1308   -13.6838 C.ar       1  LIG1  -0.1700
     22 C14       -13.7577    12.3336   -12.7732 C.ar       1  LIG1   0.1400
     23 F1        -14.1641    11.0626   -12.5620 F          1  LIG1  -0.1300
     24 C15       -12.6705    12.8366   -12.0777 C.ar       1  LIG1  -0.1600
     25 C16       -12.2572    14.1375   -12.2959 C.ar       1  LIG1  -0.0600
     26 C17       -12.9228    14.9351   -13.2024 C.ar       1  LIG1  -0.1300
     27 C18       -14.0160    14.4344   -13.9130 C.ar       1  LIG1   0.1600
     28 H3        -14.4792    16.3514   -17.8918 H          1  LIG1   0.4200
     29 H4        -16.2968    18.4369   -18.4602 H          1  LIG1   0.1000
     30 H5        -15.7933    17.1802   -19.6159 H          1  LIG1   0.0900
     31 H6        -18.3842    14.9480   -19.1060 H          1  LIG1   0.3900
     32 H7        -18.6468    18.5590   -18.6692 H          1  LIG1   0.1400
     33 H8        -18.3793    17.7191   -20.2156 H          1  LIG1   0.1400
     34 H9        -20.9932    18.5755   -19.8629 H          1  LIG1   0.1300
     35 H10       -20.4148    17.3784   -21.0458 H          1  LIG1   0.1300
     36 H11       -22.8710    17.2156   -20.7405 H          1  LIG1   0.1100
     37 H12       -22.0580    15.7326   -20.1831 H          1  LIG1   0.0900
     38 H13       -22.9972    18.0463   -18.4250 H          1  LIG1   0.0800
     39 H14       -23.7426    16.4316   -18.5285 H          1  LIG1   0.1000
     40 H15       -22.2237    16.6483   -16.5501 H          1  LIG1   0.1100
     41 H16       -21.6726    15.3948   -17.6886 H          1  LIG1   0.0900
     42 H17       -19.7831    16.8269   -16.9562 H          1  LIG1   0.1300
     43 H18       -20.6393    18.2650   -17.5603 H          1  LIG1   0.1300
     44 H19       -16.8502    14.5495   -15.1059 H          1  LIG1   0.1000
     45 H20       -15.7574    13.9844   -16.4054 H          1  LIG1   0.1000
     46 H21       -16.4929    12.5955   -13.9547 H          1  LIG1   0.1000
     47 H22       -15.3993    12.0299   -15.2552 H          1  LIG1   0.1000
     48 H23       -12.1474    12.2142   -11.3667 H          1  LIG1   0.1500
     49 H24       -11.4098    14.5307   -11.7540 H          1  LIG1   0.1400
     50 H25       -12.5940    15.9505   -13.3677 H          1  LIG1   0.1500
@<TRIPOS>BOND
     1    1    2 2
     2    2    3 am
     3    2   16 1
     4    3    4 1
     5    3   28 1
     6    4    5 1
     7    4   29 1
     8    4   30 1
     9    5    6 1
    10    5    7 1
    11    5    8 1
    12    7   31 1
    13    8    9 1
    14    8   32 1
    15    8   33 1
    16    9   10 1
    17    9   15 1
    18    9   11 1
    19   11   12 1
    20   11   34 1
    21   11   35 1
    22   12   13 1
    23   12   36 1
    24   12   37 1
    25   13   14 1
    26   13   38 1
    27   13   39 1
    28   14   15 1
    29   14   40 1
    30   14   41 1
    31   15   42 1
    32   15   43 1
    33   16   17 2
    34   16   18 am
    35   18   27 1
    36   18   19 1
    37   19   20 1
    38   19   44 1
    39   19   45 1
    40   20   21 1
    41   20   46 1
    42   20   47 1
    43   21   27 ar
    44   21   22 ar
    45   22   23 1
    46   22   24 ar
    47   24   25 ar
    48   24   48 1
    49   25   26 ar
    50   25   49 1
    51   26   27 ar
    52   26   50 1
##########                 Name:     ZINC000168431652
##########          Protonation:                 none
##########               SMILES:   CC1=CC=C(NC(=O)C[N@H+]2CC[C@H]([C@@H](C)O)C2)C=C1F
##########            Long Name:   NO_LONG_NAME
##########          FlexRecCode: 1
##########               Number:                 5739
##########   Ligand Source File: /nfs/db/export/3D/CD/ADMO/CDADMO.xakq.db2.gz
##########                 Rank:                    1
##########               Setnum:                  249
##########             Matchnum:                    1
##########                Cloud:                    1
##########        Electrostatic:           -47.445896
##########                 Gist:             0.000000
##########        Van der Waals:           -25.836824
##########  Ligand Polar Desolv:            13.676615
########## Ligand Apolar Desolv:            -3.101200
##########      Internal Energy:             0.000000
##########      Receptor Energy:             0.000000
########## Receptor Desolvation:             0.000000
########## Receptor Hydrophobic:             0.000000
##########         Total Energy:           -62.707306
##########        Ligand Charge:             1.000000
##########            Arbitrary:    +999.9990
##########        Ligand Energy:             0.000000

@<TRIPOS>MOLECULE
 ZINC000168431652      none
   42    43     0     0     0



@<TRIPOS>ATOM
      1 C1        -13.7640    13.5500   -12.0785 C.3        1  LIG1  -0.1200
      2 C2        -14.4963    14.0145   -13.3109 C.ar       1  LIG1  -0.1100
      3 C3        -15.4964    13.2311   -13.8556 C.ar       1  LIG1  -0.0700
      4 C4        -16.1694    13.6535   -14.9856 C.ar       1  LIG1  -0.1200
      5 C5        -15.8417    14.8673   -15.5753 C.ar       1  LIG1   0.1400
      6 N1        -16.5227    15.2971   -16.7195 N.am       1  LIG1  -0.6400
      7 C6        -16.6844    16.6148   -16.9525 C.2        1  LIG1   0.5000
      8 O1        -16.2394    17.4279   -16.1704 O.2        1  LIG1  -0.5100
      9 C7        -17.4179    17.0775   -18.1849 C.3        1  LIG1  -0.0200
     10 N2        -18.7885    16.5495   -18.1661 N.4        1  LIG1  -0.3800
     11 H1        -18.7731    15.5407   -18.1501 H          1  LIG1   0.4300
     12 C8        -19.5213    17.0692   -16.9832 C.3        1  LIG1  -0.0100
     13 C9        -21.0081    16.9147   -17.3913 C.3        1  LIG1  -0.1400
     14 C10       -20.9911    17.2627   -18.8975 C.3        1  LIG1  -0.1400
     15 H2        -21.2721    18.3052   -19.0481 H          1  LIG1   0.1200
     16 C11       -21.9404    16.3415   -19.6662 C.3        1  LIG1   0.1100
     17 H3        -21.6258    15.3059   -19.5368 H          1  LIG1   0.1100
     18 C12       -23.3631    16.5132   -19.1300 C.3        1  LIG1  -0.1900
     19 O2        -21.9107    16.6782   -21.0547 O.3        1  LIG1  -0.5600
     20 C13       -19.5362    17.0295   -19.3484 C.3        1  LIG1   0.0000
     21 C14       -14.8373    15.6539   -15.0272 C.ar       1  LIG1  -0.1700
     22 C15       -14.1700    15.2287   -13.8927 C.ar       1  LIG1   0.1200
     23 F1        -13.1925    15.9926   -13.3580 F          1  LIG1  -0.1300
     24 H4        -14.1544    12.5811   -11.7674 H          1  LIG1   0.0800
     25 H5        -12.7007    13.4591   -12.3003 H          1  LIG1   0.0800
     26 H6        -13.9071    14.2741   -11.2764 H          1  LIG1   0.0800
     27 H7        -15.7516    12.2870   -13.3973 H          1  LIG1   0.1400
     28 H8        -16.9501    13.0400   -15.4104 H          1  LIG1   0.1400
     29 H9        -16.8785    14.6467   -17.3451 H          1  LIG1   0.4200
     30 H10       -17.4484    18.1669   -18.2020 H          1  LIG1   0.1600
     31 H11       -16.9009    16.7145   -19.0732 H          1  LIG1   0.1600
     32 H12       -19.3006    16.4699   -16.1000 H          1  LIG1   0.1500
     33 H13       -19.2772    18.1172   -16.8094 H          1  LIG1   0.1300
     34 H14       -21.3461    15.8902   -17.2360 H          1  LIG1   0.1000
     35 H15       -21.6342    17.6165   -16.8402 H          1  LIG1   0.1200
     36 H16       -24.0394    15.8568   -19.6776 H          1  LIG1   0.0700
     37 H17       -23.3857    16.2562   -18.0710 H          1  LIG1   0.0800
     38 H18       -23.6776    17.5487   -19.2593 H          1  LIG1   0.0700
     39 H19       -21.0378    16.5920   -21.4617 H          1  LIG1   0.3800
     40 H20       -19.1039    17.9640   -19.7060 H          1  LIG1   0.1400
     41 H21       -19.5082    16.2783   -20.1378 H          1  LIG1   0.1400
     42 H22       -14.5801    16.5982   -15.4839 H          1  LIG1   0.1400
@<TRIPOS>BOND
     1    1    2 1
     2    1   24 1
     3    1   25 1
     4    1   26 1
     5    2   22 ar
     6    2    3 ar
     7    3    4 ar
     8    3   27 1
     9    4    5 ar
    10    4   28 1
    11    5    6 1
    12    5   21 ar
    13    6    7 am
    14    6   29 1
    15    7    8 2
    16    7    9 1
    17    9   10 1
    18    9   30 1
    19    9   31 1
    20   10   11 1
    21   10   20 1
    22   10   12 1
    23   12   13 1
    24   12   32 1
    25   12   33 1
    26   13   14 1
    27   13   34 1
    28   13   35 1
    29   14   15 1
    30   14   16 1
    31   14   20 1
    32   16   17 1
    33   16   18 1
    34   16   19 1
    35   18   36 1
    36   18   37 1
    37   18   38 1
    38   19   39 1
    39   20   40 1
    40   20   41 1
    41   21   22 ar
    42   21   42 1
    43   22   23 1
##########                 Name:     ZINC000361878499
##########          Protonation:                 none
##########               SMILES:   CC1=CC=CC([C@H](C)NC[C@@]2(O)CC[N@@H+](CC3=CC=CC=C3)C2)=C1
##########            Long Name:   NO_LONG_NAME
##########          FlexRecCode: 1
##########               Number:                  608
##########   Ligand Source File: /nfs/db/export/3D/DG/ADMO/DGADMO.xasz.db2.gz
##########                 Rank:                    1
##########               Setnum:                  516
##########             Matchnum:                    1
##########                Cloud:                    1
##########        Electrostatic:           -41.663578
##########                 Gist:             0.000000
##########        Van der Waals:           -30.506271
##########  Ligand Polar Desolv:            12.630936
########## Ligand Apolar Desolv:            -4.648508
##########      Internal Energy:             0.000000
##########      Receptor Energy:             0.000000
########## Receptor Desolvation:             0.000000
########## Receptor Hydrophobic:             0.000000
##########         Total Energy:           -64.187416
##########        Ligand Charge:             1.000000
##########            Arbitrary:    +999.9990
##########        Ligand Energy:             0.000000

@<TRIPOS>MOLECULE
 ZINC000361878499      none
   53    55     0     0     0



@<TRIPOS>ATOM
      1 C1        -18.4322    23.3107   -21.3794 C.3        1  LIG1  -0.1200
      2 C2        -18.4496    21.8843   -21.8656 C.ar       1  LIG1  -0.0800
      3 C3        -19.6010    21.3568   -22.4187 C.ar       1  LIG1  -0.1200
      4 C4        -19.6170    20.0482   -22.8647 C.ar       1  LIG1  -0.1200
      5 C5        -18.4814    19.2677   -22.7577 C.ar       1  LIG1  -0.1100
      6 C6        -17.3292    19.7957   -22.2052 C.ar       1  LIG1  -0.1000
      7 C7        -16.0911    18.9446   -22.0880 C.3        1  LIG1   0.1300
      8 H1        -15.2912    19.5277   -21.6317 H          1  LIG1   0.0600
      9 C8        -15.6556    18.4835   -23.4805 C.3        1  LIG1  -0.1400
     10 N1        -16.3803    17.7718   -21.2521 N.3        1  LIG1  -0.6800
     11 C9        -16.3365    18.1185   -19.8253 C.3        1  LIG1   0.0400
     12 C10       -17.1035    17.0669   -19.0211 C.3        1  LIG1   0.1200
     13 O1        -16.7918    15.7518   -19.4849 O.3        1  LIG1  -0.5500
     14 C11       -16.8005    17.2049   -17.5113 C.3        1  LIG1  -0.1600
     15 C12       -18.1484    16.9628   -16.8070 C.3        1  LIG1  -0.0100
     16 N2        -19.1437    16.6743   -17.8622 N.4        1  LIG1  -0.3900
     17 H2        -19.2226    15.6783   -18.0031 H          1  LIG1   0.4300
     18 C13       -20.4491    17.2395   -17.4955 C.3        1  LIG1   0.0500
     19 C14       -21.2999    17.3818   -18.7312 C.ar       1  LIG1  -0.1600
     20 C15       -21.2552    18.5489   -19.4705 C.ar       1  LIG1  -0.0900
     21 C16       -22.0357    18.6794   -20.6040 C.ar       1  LIG1  -0.1100
     22 C17       -22.8603    17.6425   -20.9986 C.ar       1  LIG1  -0.0800
     23 C18       -22.9042    16.4750   -20.2597 C.ar       1  LIG1  -0.1100
     24 C19       -22.1206    16.3428   -19.1287 C.ar       1  LIG1  -0.0900
     25 C20       -18.6292    17.3266   -19.0934 C.3        1  LIG1   0.0100
     26 C21       -17.3120    21.1052   -21.7632 C.ar       1  LIG1  -0.1100
     27 H3        -19.4112    23.7617   -21.5414 H          1  LIG1   0.0700
     28 H4        -18.1952    23.3292   -20.3157 H          1  LIG1   0.0700
     29 H5        -17.6777    23.8729   -21.9296 H          1  LIG1   0.0700
     30 H6        -20.4885    21.9667   -22.5024 H          1  LIG1   0.1200
     31 H7        -20.5170    19.6358   -23.2963 H          1  LIG1   0.1200
     32 H8        -18.4941    18.2453   -23.1054 H          1  LIG1   0.1300
     33 H9        -14.7601    17.8679   -23.3957 H          1  LIG1   0.0600
     34 H10       -16.4556    17.9004   -23.9368 H          1  LIG1   0.0500
     35 H11       -15.4411    19.3538   -24.1007 H          1  LIG1   0.0700
     36 H12       -17.2696    17.3631   -21.4978 H          1  LIG1   0.3400
     37 H13       -15.2997    18.1475   -19.4901 H          1  LIG1   0.1000
     38 H14       -16.7945    19.0961   -19.6748 H          1  LIG1   0.0500
     39 H15       -17.2518    15.0473   -19.0083 H          1  LIG1   0.4000
     40 H16       -16.0719    16.4557   -17.2017 H          1  LIG1   0.1100
     41 H17       -16.4321    18.2064   -17.2893 H          1  LIG1   0.1200
     42 H18       -18.0665    16.1116   -16.1310 H          1  LIG1   0.1300
     43 H19       -18.4428    17.8537   -16.2523 H          1  LIG1   0.1300
     44 H20       -20.9458    16.5768   -16.7868 H          1  LIG1   0.1400
     45 H21       -20.3057    18.2185   -17.0383 H          1  LIG1   0.1400
     46 H22       -20.6110    19.3591   -19.1623 H          1  LIG1   0.1300
     47 H23       -22.0013    19.5917   -21.1811 H          1  LIG1   0.1400
     48 H24       -23.4706    17.7448   -21.8836 H          1  LIG1   0.1400
     49 H25       -23.5488    15.6650   -20.5678 H          1  LIG1   0.1400
     50 H26       -22.1550    15.4306   -18.5515 H          1  LIG1   0.1300
     51 H27       -18.8386    18.3962   -19.0783 H          1  LIG1   0.1500
     52 H28       -19.0567    16.8623   -19.9821 H          1  LIG1   0.1400
     53 H29       -16.4120    21.5178   -21.3317 H          1  LIG1   0.1200
@<TRIPOS>BOND
     1    1    2 1
     2    1   27 1
     3    1   28 1
     4    1   29 1
     5    2   26 ar
     6    2    3 ar
     7    3    4 ar
     8    3   30 1
     9    4    5 ar
    10    4   31 1
    11    5    6 ar
    12    5   32 1
    13    6    7 1
    14    6   26 ar
    15    7    8 1
    16    7    9 1
    17    7   10 1
    18    9   33 1
    19    9   34 1
    20    9   35 1
    21   10   11 1
    22   10   36 1
    23   11   12 1
    24   11   37 1
    25   11   38 1
    26   12   25 1
    27   12   13 1
    28   12   14 1
    29   13   39 1
    30   14   15 1
    31   14   40 1
    32   14   41 1
    33   15   16 1
    34   15   42 1
    35   15   43 1
    36   16   17 1
    37   16   18 1
    38   16   25 1
    39   18   19 1
    40   18   44 1
    41   18   45 1
    42   19   24 ar
    43   19   20 ar
    44   20   21 ar
    45   20   46 1
    46   21   22 ar
    47   21   47 1
    48   22   23 ar
    49   22   48 1
    50   23   24 ar
    51   23   49 1
    52   24   50 1
    53   25   51 1
    54   25   52 1
    55   26   53 1
##########                 Name:     ZINC000544735140
##########          Protonation:                 none
##########               SMILES:   O=C(Nc1cccc(-c2cc[nH]n2)c1)[C@@H](C1CC1)[NH+]1CCCC1
##########            Long Name:   NO_LONG_NAME
##########          FlexRecCode: 1
##########               Number:                 4784
##########   Ligand Source File: /nfs/db/export/3D/DF/ADRO/DFADRO.xatn.db2.gz
##########                 Rank:                    1
##########               Setnum:                   90
##########             Matchnum:                    1
##########                Cloud:                    1
##########        Electrostatic:           -43.227612
##########                 Gist:             0.000000
##########        Van der Waals:           -32.626541
##########  Ligand Polar Desolv:            14.150996
########## Ligand Apolar Desolv:            -4.531077
##########      Internal Energy:             0.000000
##########      Receptor Energy:             0.000000
########## Receptor Desolvation:             0.000000
########## Receptor Hydrophobic:             0.000000
##########         Total Energy:           -66.234238
##########        Ligand Charge:             1.000000
##########            Arbitrary:    +999.9990
##########        Ligand Energy:             0.000000

@<TRIPOS>MOLECULE
 ZINC000544735140      none
   46    49     0     0     0



@<TRIPOS>ATOM
      1 O1        -16.8335    18.1183   -16.8187 O.2        1  LIG1  -0.4900
      2 C1        -17.1361    17.1489   -17.4819 C.2        1  LIG1   0.5000
      3 N1        -16.6672    15.9305   -17.1475 N.am       1  LIG1  -0.6500
      4 C2        -15.8261    15.7846   -16.0385 C.ar       1  LIG1   0.1200
      5 C3        -14.9904    16.8272   -15.6584 C.ar       1  LIG1  -0.1100
      6 C4        -14.1585    16.6868   -14.5636 C.ar       1  LIG1  -0.1000
      7 C5        -14.1538    15.5102   -13.8416 C.ar       1  LIG1  -0.0900
      8 C6        -14.9894    14.4592   -14.2155 C.ar       1  LIG1   0.0100
      9 C7        -14.9855    13.1935   -13.4403 C.2        1  LIG1   0.1100
     10 N2        -14.2487    12.9371   -12.3802 N.2        1  LIG1  -0.2900
     11 N3        -14.5436    11.6373   -11.9491 N.pl3      1  LIG1  -0.4700
     12 C8        -15.4762    11.1210   -12.7780 C.2        1  LIG1   0.0700
     13 C9        -15.7742    12.0571   -13.7052 C.2        1  LIG1  -0.2600
     14 C10       -15.8310    14.6014   -15.3150 C.ar       1  LIG1  -0.1100
     15 C11       -18.0417    17.3060   -18.6761 C.3        1  LIG1   0.0500
     16 H1        -18.3205    18.3541   -18.7854 H          1  LIG1   0.1500
     17 C12       -17.3100    16.8389   -19.9360 C.3        1  LIG1  -0.2000
     18 C13       -17.2867    17.7910   -21.1335 C.3        1  LIG1  -0.1600
     19 C14       -16.0163    17.5642   -20.3116 C.3        1  LIG1  -0.1500
     20 N4        -19.2514    16.4952   -18.4834 N.4        1  LIG1  -0.3800
     21 H2        -19.0057    15.5219   -18.3809 H          1  LIG1   0.4300
     22 C15       -19.9969    16.9639   -17.2873 C.3        1  LIG1  -0.0100
     23 C16       -21.4347    16.4445   -17.5397 C.3        1  LIG1  -0.1400
     24 C17       -21.6049    16.6261   -19.0656 C.3        1  LIG1  -0.1400
     25 C18       -20.1711    16.6712   -19.6281 C.3        1  LIG1   0.0000
     26 H3        -16.9124    15.1546   -17.6756 H          1  LIG1   0.4200
     27 H4        -14.9904    17.7497   -16.2199 H          1  LIG1   0.1500
     28 H5        -13.5100    17.4997   -14.2723 H          1  LIG1   0.1400
     29 H6        -13.5022    15.4039   -12.9869 H          1  LIG1   0.1400
     30 H7        -14.1465    11.1863   -11.1877 H          1  LIG1   0.4400
     31 H8        -15.9102    10.1344   -12.7095 H          1  LIG1   0.1800
     32 H9        -16.4861    11.9507   -14.5104 H          1  LIG1   0.1500
     33 H10       -16.4806    13.7899   -15.6085 H          1  LIG1   0.1300
     34 H11       -17.3663    15.7703   -20.1433 H          1  LIG1   0.1400
     35 H12       -17.3277    17.3489   -22.1289 H          1  LIG1   0.1200
     36 H13       -17.7926    18.7503   -21.0236 H          1  LIG1   0.1100
     37 H14       -15.6865    18.3743   -19.6610 H          1  LIG1   0.1100
     38 H15       -15.2215    16.9729   -20.7662 H          1  LIG1   0.1200
     39 H16       -19.5831    16.5248   -16.3795 H          1  LIG1   0.1400
     40 H17       -19.9858    18.0523   -17.2292 H          1  LIG1   0.1300
     41 H18       -21.5189    15.3932   -17.2646 H          1  LIG1   0.1000
     42 H19       -22.1631    17.0461   -16.9960 H          1  LIG1   0.1200
     43 H20       -22.1499    15.7821   -19.4885 H          1  LIG1   0.1100
     44 H21       -22.1257    17.5593   -19.2796 H          1  LIG1   0.1100
     45 H22       -19.9894    17.6345   -20.1047 H          1  LIG1   0.1300
     46 H23       -20.0292    15.8652   -20.3481 H          1  LIG1   0.1400
@<TRIPOS>BOND
     1    1    2 2
     2    2    3 am
     3    2   15 1
     4    3    4 1
     5    3   26 1
     6    4   14 ar
     7    4    5 ar
     8    5    6 ar
     9    5   27 1
    10    6    7 ar
    11    6   28 1
    12    7    8 ar
    13    7   29 1
    14    8    9 1
    15    8   14 ar
    16    9   13 1
    17    9   10 2
    18   10   11 1
    19   11   12 1
    20   11   30 1
    21   12   13 2
    22   12   31 1
    23   13   32 1
    24   14   33 1
    25   15   16 1
    26   15   17 1
    27   15   20 1
    28   17   19 1
    29   17   18 1
    30   17   34 1
    31   18   19 1
    32   18   35 1
    33   18   36 1
    34   19   37 1
    35   19   38 1
    36   20   21 1
    37   20   25 1
    38   20   22 1
    39   22   23 1
    40   22   39 1
    41   22   40 1
    42   23   24 1
    43   23   41 1
    44   23   42 1
    45   24   25 1
    46   24   43 1
    47   24   44 1
    48   25   45 1
    49   25   46 1
##########                 Name:     ZINC000293243287
##########          Protonation:                 none
##########               SMILES:   C[N@@H+](CC#CC1=CC=CC=C1)C[C@@H](O)CC1=CC=CC=C1
##########            Long Name:   NO_LONG_NAME
##########          FlexRecCode: 1
##########               Number:                 1793
##########   Ligand Source File: /nfs/db/export/3D/CF/EDMO/CFEDMO.xag.db2.gz
##########                 Rank:                    1
##########               Setnum:                  114
##########             Matchnum:                    1
##########                Cloud:                    1
##########        Electrostatic:           -42.419689
##########                 Gist:             0.000000
##########        Van der Waals:           -28.897717
##########  Ligand Polar Desolv:            14.027038
########## Ligand Apolar Desolv:            -5.560017
##########      Internal Energy:             0.000000
##########      Receptor Energy:             0.000000
########## Receptor Desolvation:             0.000000
########## Receptor Hydrophobic:             0.000000
##########         Total Energy:           -62.850384
##########        Ligand Charge:             1.000000
##########            Arbitrary:    +999.9990
##########        Ligand Energy:             0.000000

@<TRIPOS>MOLECULE
 ZINC000293243287      none
   43    44     0     0     0



@<TRIPOS>ATOM
      1 C1        -16.6798    15.4425   -18.7253 C.3        1  LIG1  -0.0500
      2 N1        -17.5706    16.2799   -17.9109 N.4        1  LIG1  -0.3800
      3 H1        -18.2949    15.7057   -17.5061 H          1  LIG1   0.4300
      4 C2        -16.7966    16.9198   -16.8389 C.3        1  LIG1   0.1400
      5 C3        -16.1849    15.8843   -15.9901 C.1        1  LIG1  -0.2800
      6 C4        -15.6969    15.0583   -15.3133 C.1        1  LIG1   0.0100
      7 C5        -15.1018    14.0510   -14.4877 C.ar       1  LIG1  -0.0400
      8 C6        -15.3029    12.7006   -14.7752 C.ar       1  LIG1  -0.0800
      9 C7        -14.7263    11.7348   -13.9760 C.ar       1  LIG1  -0.1200
     10 C8        -13.9501    12.1031   -12.8917 C.ar       1  LIG1  -0.0800
     11 C9        -13.7468    13.4403   -12.6013 C.ar       1  LIG1  -0.1200
     12 C10       -14.3135    14.4158   -13.3956 C.ar       1  LIG1  -0.0800
     13 C11       -18.1810    17.3132   -18.7580 C.3        1  LIG1  -0.0500
     14 C12       -19.3515    16.7088   -19.5363 C.3        1  LIG1   0.0900
     15 H2        -18.9892    15.8934   -20.1621 H          1  LIG1   0.1200
     16 O1        -20.3259    16.2084   -18.6186 O.3        1  LIG1  -0.5500
     17 C13       -19.9872    17.7852   -20.4184 C.3        1  LIG1  -0.1100
     18 C14       -18.9596    18.3130   -21.3863 C.ar       1  LIG1  -0.1000
     19 C15       -19.0332    19.6210   -21.8272 C.ar       1  LIG1  -0.1200
     20 C16       -18.0907    20.1052   -22.7151 C.ar       1  LIG1  -0.1200
     21 C17       -17.0741    19.2815   -23.1612 C.ar       1  LIG1  -0.1100
     22 C18       -17.0000    17.9738   -22.7193 C.ar       1  LIG1  -0.1200
     23 C19       -17.9400    17.4908   -21.8284 C.ar       1  LIG1  -0.1000
     24 H3        -15.8974    16.0626   -19.1625 H          1  LIG1   0.1300
     25 H4        -16.2268    14.6756   -18.0968 H          1  LIG1   0.1200
     26 H5        -17.2541    14.9677   -19.5208 H          1  LIG1   0.1300
     27 H6        -16.0142    17.5400   -17.2761 H          1  LIG1   0.1500
     28 H7        -17.4576    17.5410   -16.2345 H          1  LIG1   0.1500
     29 H8        -15.9089    12.4117   -15.6212 H          1  LIG1   0.1300
     30 H9        -14.8815    10.6891   -14.1974 H          1  LIG1   0.1400
     31 H10       -13.5013    11.3433   -12.2690 H          1  LIG1   0.1400
     32 H11       -13.1398    13.7213   -11.7533 H          1  LIG1   0.1400
     33 H12       -14.1537    15.4594   -13.1680 H          1  LIG1   0.1300
     34 H13       -18.5434    18.1287   -18.1320 H          1  LIG1   0.1400
     35 H14       -17.4378    17.6951   -19.4579 H          1  LIG1   0.1400
     36 H15       -19.9918    15.5210   -18.0263 H          1  LIG1   0.3900
     37 H16       -20.8211    17.3547   -20.9730 H          1  LIG1   0.0900
     38 H17       -20.3494    18.6008   -19.7926 H          1  LIG1   0.0900
     39 H18       -19.8274    20.2646   -21.4788 H          1  LIG1   0.1200
     40 H19       -18.1486    21.1268   -23.0602 H          1  LIG1   0.1300
     41 H20       -16.3381    19.6595   -23.8553 H          1  LIG1   0.1300
     42 H21       -16.2060    17.3301   -23.0682 H          1  LIG1   0.1300
     43 H22       -17.8821    16.4692   -21.4831 H          1  LIG1   0.1200
@<TRIPOS>BOND
     1    1    2 1
     2    1   24 1
     3    1   25 1
     4    1   26 1
     5    2    3 1
     6    2    4 1
     7    2   13 1
     8    4    5 1
     9    4   27 1
    10    4   28 1
    11    5    6 3
    12    6    7 1
    13    7   12 ar
    14    7    8 ar
    15    8    9 ar
    16    8   29 1
    17    9   10 ar
    18    9   30 1
    19   10   11 ar
    20   10   31 1
    21   11   12 ar
    22   11   32 1
    23   12   33 1
    24   13   14 1
    25   13   34 1
    26   13   35 1
    27   14   15 1
    28   14   16 1
    29   14   17 1
    30   16   36 1
    31   17   18 1
    32   17   37 1
    33   17   38 1
    34   18   23 ar
    35   18   19 ar
    36   19   20 ar
    37   19   39 1
    38   20   21 ar
    39   20   40 1
    40   21   22 ar
    41   21   41 1
    42   22   23 ar
    43   22   42 1
    44   23   43 1
##########                 Name:     ZINC000581662720
##########          Protonation:                 none
##########               SMILES:   O[C@H](C[NH2+][C@@H]1CCN(c2ccc(Cl)cc2)C1)COc1ccccc1
##########            Long Name:   NO_LONG_NAME
##########          FlexRecCode: 1
##########               Number:                 8933
##########   Ligand Source File: /nfs/db/export/3D/EF/ADRO/EFADRO.xbtl.db2.gz
##########                 Rank:                    1
##########               Setnum:                  486
##########             Matchnum:                    1
##########                Cloud:                    1
##########        Electrostatic:           -45.694317
##########                 Gist:             0.000000
##########        Van der Waals:           -30.907492
##########  Ligand Polar Desolv:            16.512836
########## Ligand Apolar Desolv:            -2.295720
##########      Internal Energy:             0.000000
##########      Receptor Energy:             0.000000
########## Receptor Desolvation:             0.000000
########## Receptor Hydrophobic:             0.000000
##########         Total Energy:           -62.384689
##########        Ligand Charge:             1.000000
##########            Arbitrary:    +999.9990
##########        Ligand Energy:             0.000000

@<TRIPOS>MOLECULE
 ZINC000581662720      none
   48    50     0     0     0



@<TRIPOS>ATOM
      1 O1        -20.5381    17.2090   -18.3414 O.3        1  LIG1  -0.5400
      2 C1        -19.8443    16.7277   -19.4942 C.3        1  LIG1   0.0900
      3 H1        -20.1182    15.6884   -19.6757 H          1  LIG1   0.1400
      4 C2        -18.3356    16.8237   -19.2586 C.3        1  LIG1  -0.0400
      5 N1        -18.0303    16.4352   -17.8752 N.4        1  LIG1  -0.5000
      6 H2        -18.5102    17.0536   -17.2385 H          1  LIG1   0.4400
      7 H3        -18.3356    15.4866   -17.7172 H          1  LIG1   0.4300
      8 C3        -16.5818    16.5274   -17.6489 C.3        1  LIG1   0.0100
      9 H4        -16.0393    16.1632   -18.5214 H          1  LIG1   0.1500
     10 C4        -16.1825    15.7194   -16.3929 C.3        1  LIG1  -0.1400
     11 C5        -15.1067    16.6169   -15.7311 C.3        1  LIG1   0.0300
     12 N2        -15.6177    17.9911   -15.9688 N.pl3      1  LIG1  -0.4600
     13 C6        -14.5917    18.9333   -15.8568 C.ar       1  LIG1   0.0900
     14 C7        -13.5210    18.6979   -15.0040 C.ar       1  LIG1  -0.1400
     15 C8        -12.5083    19.6309   -14.8953 C.ar       1  LIG1  -0.0800
     16 C9        -12.5598    20.7989   -15.6350 C.ar       1  LIG1  -0.0500
     17 Cl1       -11.2855    21.9696   -15.4962 Cl         1  LIG1  -0.0500
     18 C10       -13.6255    21.0363   -16.4856 C.ar       1  LIG1  -0.0800
     19 C11       -14.6380    20.1042   -16.6024 C.ar       1  LIG1  -0.1400
     20 C12       -16.1807    17.9814   -17.3388 C.3        1  LIG1   0.0100
     21 C13       -20.2255    17.5752   -20.7097 C.3        1  LIG1   0.0300
     22 O2        -19.2315    17.4256   -21.7254 O.3        1  LIG1  -0.3000
     23 C14       -18.5809    18.5508   -22.1223 C.ar       1  LIG1   0.1200
     24 C15       -17.2749    18.4723   -22.5835 C.ar       1  LIG1  -0.2100
     25 C16       -16.6159    19.6174   -22.9868 C.ar       1  LIG1  -0.0800
     26 C17       -17.2568    20.8413   -22.9306 C.ar       1  LIG1  -0.1500
     27 C18       -18.5582    20.9224   -22.4710 C.ar       1  LIG1  -0.0800
     28 C19       -19.2236    19.7793   -22.0723 C.ar       1  LIG1  -0.1400
     29 H5        -20.3438    16.7172   -17.5318 H          1  LIG1   0.3900
     30 H6        -17.8171    16.1557   -19.9463 H          1  LIG1   0.1500
     31 H7        -18.0056    17.8484   -19.4295 H          1  LIG1   0.1400
     32 H8        -17.0376    15.5895   -15.7298 H          1  LIG1   0.1000
     33 H9        -15.7603    14.7543   -16.6731 H          1  LIG1   0.1100
     34 H10       -15.0383    16.4114   -14.6628 H          1  LIG1   0.1100
     35 H11       -14.1394    16.4773   -16.2135 H          1  LIG1   0.0800
     36 H12       -13.4805    17.7865   -14.4261 H          1  LIG1   0.1300
     37 H13       -11.6758    19.4485   -14.2321 H          1  LIG1   0.1400
     38 H14       -13.6634    21.9491   -17.0614 H          1  LIG1   0.1400
     39 H15       -15.4691    20.2896   -17.2666 H          1  LIG1   0.1400
     40 H16       -15.4294    18.3218   -18.0514 H          1  LIG1   0.1000
     41 H17       -17.0583    18.6262   -17.3842 H          1  LIG1   0.1100
     42 H18       -21.1906    17.2452   -21.0944 H          1  LIG1   0.0800
     43 H19       -20.2904    18.6230   -20.4162 H          1  LIG1   0.0800
     44 H20       -16.7737    17.5165   -22.6268 H          1  LIG1   0.1200
     45 H21       -15.5991    19.5567   -23.3458 H          1  LIG1   0.1300
     46 H22       -16.7397    21.7356   -23.2461 H          1  LIG1   0.1300
     47 H23       -19.0566    21.8796   -22.4277 H          1  LIG1   0.1400
     48 H24       -20.2403    19.8431   -21.7134 H          1  LIG1   0.1300
@<TRIPOS>BOND
     1    1    2 1
     2    1   29 1
     3    2    3 1
     4    2    4 1
     5    2   21 1
     6    4    5 1
     7    4   30 1
     8    4   31 1
     9    5    6 1
    10    5    7 1
    11    5    8 1
    12    8    9 1
    13    8   20 1
    14    8   10 1
    15   10   11 1
    16   10   32 1
    17   10   33 1
    18   11   12 1
    19   11   34 1
    20   11   35 1
    21   12   13 1
    22   12   20 1
    23   13   19 ar
    24   13   14 ar
    25   14   15 ar
    26   14   36 1
    27   15   16 ar
    28   15   37 1
    29   16   17 1
    30   16   18 ar
    31   18   19 ar
    32   18   38 1
    33   19   39 1
    34   20   40 1
    35   20   41 1
    36   21   22 1
    37   21   42 1
    38   21   43 1
    39   22   23 1
    40   23   28 ar
    41   23   24 ar
    42   24   25 ar
    43   24   44 1
    44   25   26 ar
    45   25   45 1
    46   26   27 ar
    47   26   46 1
    48   27   28 ar
    49   27   47 1
    50   28   48 1
##########                 Name:     ZINC000602808750
##########          Protonation:                 none
##########               SMILES:   CC(C)OC(=O)C[C@@H]([NH2+]CC1=CN(C)N=C1[N+](=O)[O-])C1=CC=CC=C1
##########            Long Name:   NO_LONG_NAME
##########          FlexRecCode: 1
##########               Number:                 4597
##########   Ligand Source File: /nfs/db/export/3D/EF/BDMO/EFBDMO.xbc.db2.gz
##########                 Rank:                    1
##########               Setnum:                   46
##########             Matchnum:                    1
##########                Cloud:                    1
##########        Electrostatic:           -40.530777
##########                 Gist:             0.000000
##########        Van der Waals:           -33.371506
##########  Ligand Polar Desolv:            15.432409
########## Ligand Apolar Desolv:            -5.704629
##########      Internal Energy:             0.000000
##########      Receptor Energy:             0.000000
########## Receptor Desolvation:             0.000000
########## Receptor Hydrophobic:             0.000000
##########         Total Energy:           -64.174500
##########        Ligand Charge:             1.000000
##########            Arbitrary:    +999.9990
##########        Ligand Energy:             0.000000

@<TRIPOS>MOLECULE
 ZINC000602808750      none
   48    49     0     0     0



@<TRIPOS>ATOM
      1 C1        -18.6448    21.0644   -23.4996 C.3        1  LIG1  -0.1600
      2 C2        -18.1837    19.6806   -23.0375 C.3        1  LIG1   0.0800
      3 C3        -16.6550    19.6210   -23.0524 C.3        1  LIG1  -0.1700
      4 O1        -18.6645    19.4353   -21.6896 O.3        1  LIG1  -0.3300
      5 C4        -18.3441    18.2565   -21.1333 C.2        1  LIG1   0.4600
      6 O2        -18.1905    17.2815   -21.8302 O.2        1  LIG1  -0.5300
      7 C5        -18.1759    18.1491   -19.6395 C.3        1  LIG1  -0.1400
      8 C6        -18.5554    16.7388   -19.1835 C.3        1  LIG1   0.1000
      9 H1        -18.1826    16.0112   -19.9044 H          1  LIG1   0.1600
     10 N1        -17.9601    16.4731   -17.8671 N.4        1  LIG1  -0.5100
     11 H2        -18.0284    17.3006   -17.2938 H          1  LIG1   0.4300
     12 H3        -18.4534    15.7137   -17.4220 H          1  LIG1   0.4200
     13 C7        -16.5469    16.1081   -18.0336 C.3        1  LIG1   0.0800
     14 C8        -15.9360    15.8355   -16.6832 C.2        1  LIG1  -0.2700
     15 C9        -15.8902    14.6366   -16.0575 C.2        1  LIG1   0.1300
     16 N2        -15.2630    14.8130   -14.8756 N.pl3      1  LIG1  -0.3100
     17 C10       -14.9963    13.7740   -13.8780 C.3        1  LIG1   0.0800
     18 N3        -14.9118    16.1651   -14.7717 N.2        1  LIG1  -0.1800
     19 C11       -15.3107    16.7758   -15.8579 C.2        1  LIG1   0.1300
     20 N4        -15.1386    18.2151   -16.1573 N.pl3      1  LIG1   0.0500
     21 O3        -15.5610    18.6743   -17.2033 O.2        1  LIG1  -0.0800
     22 O4        -14.5744    18.9402   -15.3577 O.2        1  LIG1  -0.1500
     23 C12       -20.0553    16.6284   -19.0881 C.ar       1  LIG1  -0.1600
     24 C13       -20.6973    16.9398   -17.9043 C.ar       1  LIG1  -0.0900
     25 C14       -22.0732    16.8385   -17.8167 C.ar       1  LIG1  -0.0900
     26 C15       -22.8070    16.4261   -18.9133 C.ar       1  LIG1  -0.0900
     27 C16       -22.1650    16.1155   -20.0975 C.ar       1  LIG1  -0.1100
     28 C17       -20.7896    16.2211   -20.1862 C.ar       1  LIG1  -0.0800
     29 H4        -19.7339    21.1067   -23.4889 H          1  LIG1   0.0900
     30 H5        -18.2450    21.8236   -22.8275 H          1  LIG1   0.0700
     31 H6        -18.2839    21.2484   -24.5114 H          1  LIG1   0.0700
     32 H7        -18.5835    18.9212   -23.7096 H          1  LIG1   0.0900
     33 H8        -16.3265    18.6351   -22.7232 H          1  LIG1   0.0600
     34 H9        -16.2941    19.8053   -24.0643 H          1  LIG1   0.0900
     35 H10       -16.2552    20.3802   -22.3802 H          1  LIG1   0.0700
     36 H11       -17.1373    18.3492   -19.3756 H          1  LIG1   0.1300
     37 H12       -18.8222    18.8762   -19.1479 H          1  LIG1   0.1600
     38 H13       -16.4731    15.2141   -18.6529 H          1  LIG1   0.1500
     39 H14       -16.0139    16.9283   -18.5146 H          1  LIG1   0.1500
     40 H15       -16.2853    13.7054   -16.4358 H          1  LIG1   0.2100
     41 H16       -14.4757    14.2127   -13.0267 H          1  LIG1   0.1000
     42 H17       -15.9388    13.3409   -13.5434 H          1  LIG1   0.1100
     43 H18       -14.3756    12.9953   -14.3213 H          1  LIG1   0.1200
     44 H19       -20.1240    17.2619   -17.0475 H          1  LIG1   0.1200
     45 H20       -22.5748    17.0811   -16.8915 H          1  LIG1   0.1400
     46 H21       -23.8819    16.3463   -18.8447 H          1  LIG1   0.1300
     47 H22       -22.7383    15.7932   -20.9541 H          1  LIG1   0.1400
     48 H23       -20.2880    15.9784   -21.1114 H          1  LIG1   0.1300
@<TRIPOS>BOND
     1    1    2 1
     2    1   29 1
     3    1   30 1
     4    1   31 1
     5    2    3 1
     6    2    4 1
     7    2   32 1
     8    3   33 1
     9    3   34 1
    10    3   35 1
    11    4    5 1
    12    5    6 2
    13    5    7 1
    14    7    8 1
    15    7   36 1
    16    7   37 1
    17    8    9 1
    18    8   10 1
    19    8   23 1
    20   10   11 1
    21   10   12 1
    22   10   13 1
    23   13   14 1
    24   13   38 1
    25   13   39 1
    26   14   19 1
    27   14   15 2
    28   15   16 1
    29   15   40 1
    30   16   17 1
    31   16   18 1
    32   17   41 1
    33   17   42 1
    34   17   43 1
    35   18   19 2
    36   19   20 1
    37   20   21 2
    38   20   22 2
    39   23   28 ar
    40   23   24 ar
    41   24   25 ar
    42   24   44 1
    43   25   26 ar
    44   25   45 1
    45   26   27 ar
    46   26   46 1
    47   27   28 ar
    48   27   47 1
    49   28   48 1
##########                 Name:     ZINC000089931265
##########          Protonation:                 none
##########               SMILES:   CC1=CC=CC(C)=C1OCCNC(=O)C[N@H+]1CCC[C@H]([C@@H](C)O)C1
##########            Long Name:   NO_LONG_NAME
##########          FlexRecCode: 1
##########               Number:                13354
##########   Ligand Source File: /nfs/db/export/3D/ED/ADRO/EDADRO.xcut.db2.gz
##########                 Rank:                    1
##########               Setnum:                  219
##########             Matchnum:                    1
##########                Cloud:                    1
##########        Electrostatic:           -45.311386
##########                 Gist:             0.000000
##########        Van der Waals:           -30.901386
##########  Ligand Polar Desolv:            12.732939
########## Ligand Apolar Desolv:            -3.566978
##########      Internal Energy:             0.000000
##########      Receptor Energy:             0.000000
########## Receptor Desolvation:             0.000000
########## Receptor Hydrophobic:             0.000000
##########         Total Energy:           -67.046806
##########        Ligand Charge:             1.000000
##########            Arbitrary:    +999.9990
##########        Ligand Energy:             0.000000

@<TRIPOS>MOLECULE
 ZINC000089931265      none
   55    56     0     0     0



@<TRIPOS>ATOM
      1 C1        -13.5339    15.1730   -12.2915 C.3        1  LIG1  -0.1200
      2 C2        -14.0950    13.9608   -12.9894 C.ar       1  LIG1  -0.0900
      3 C3        -13.6778    12.6964   -12.6212 C.ar       1  LIG1  -0.1100
      4 C4        -14.1923    11.5838   -13.2608 C.ar       1  LIG1  -0.1100
      5 C5        -15.1255    11.7336   -14.2701 C.ar       1  LIG1  -0.1100
      6 C6        -15.5459    12.9959   -14.6419 C.ar       1  LIG1  -0.1000
      7 C7        -16.5630    13.1585   -15.7421 C.3        1  LIG1  -0.1100
      8 C8        -15.0350    14.1135   -13.9980 C.ar       1  LIG1   0.0800
      9 O1        -15.4471    15.3564   -14.3621 O.3        1  LIG1  -0.3300
     10 C9        -14.7090    16.0070   -15.3983 C.3        1  LIG1   0.0500
     11 C10       -15.3161    17.3852   -15.6688 C.3        1  LIG1   0.1200
     12 N1        -16.7118    17.2305   -16.0865 N.am       1  LIG1  -0.7000
     13 C11       -17.2681    18.1285   -16.9234 C.2        1  LIG1   0.5000
     14 O2        -16.6135    19.0647   -17.3306 O.2        1  LIG1  -0.5300
     15 C12       -18.7038    17.9695   -17.3532 C.3        1  LIG1  -0.0400
     16 N2        -18.8671    16.6867   -18.0499 N.4        1  LIG1  -0.3600
     17 H1        -18.6163    15.9329   -17.4279 H          1  LIG1   0.4300
     18 C13       -20.2666    16.5316   -18.4648 C.3        1  LIG1  -0.0200
     19 C14       -20.6757    17.7146   -19.3448 C.3        1  LIG1  -0.1400
     20 C15       -19.7764    17.7575   -20.5835 C.3        1  LIG1  -0.1400
     21 C16       -18.3138    17.8444   -20.1375 C.3        1  LIG1  -0.1000
     22 H2        -18.1544    18.7742   -19.5917 H          1  LIG1   0.1000
     23 C17       -17.4023    17.8101   -21.3658 C.3        1  LIG1   0.1100
     24 H3        -17.7899    17.0895   -22.0860 H          1  LIG1   0.0700
     25 C18       -17.3582    19.1985   -22.0071 C.3        1  LIG1  -0.1900
     26 O3        -16.0840    17.4260   -20.9701 O.3        1  LIG1  -0.5700
     27 C19       -17.9934    16.6572   -19.2291 C.3        1  LIG1   0.0000
     28 H4        -12.8154    14.8569   -11.5352 H          1  LIG1   0.0700
     29 H5        -13.0366    15.8138   -13.0196 H          1  LIG1   0.0700
     30 H6        -14.3439    15.7252   -11.8148 H          1  LIG1   0.0700
     31 H7        -12.9487    12.5768   -11.8334 H          1  LIG1   0.1300
     32 H8        -13.8648    10.5961   -12.9717 H          1  LIG1   0.1300
     33 H9        -15.5257    10.8631   -14.7683 H          1  LIG1   0.1300
     34 H10       -16.7685    14.2182   -15.8932 H          1  LIG1   0.0700
     35 H11       -16.1722    12.7290   -16.6644 H          1  LIG1   0.0600
     36 H12       -17.4839    12.6458   -15.4641 H          1  LIG1   0.0700
     37 H13       -13.6706    16.1221   -15.0875 H          1  LIG1   0.0700
     38 H14       -14.7518    15.4064   -16.3069 H          1  LIG1   0.0800
     39 H15       -15.2733    17.9856   -14.7601 H          1  LIG1   0.1000
     40 H16       -14.7530    17.8815   -16.4591 H          1  LIG1   0.0900
     41 H17       -17.2353    16.4816   -15.7609 H          1  LIG1   0.4100
     42 H18       -19.3502    17.9914   -16.4758 H          1  LIG1   0.1600
     43 H19       -18.9744    18.7845   -18.0244 H          1  LIG1   0.1600
     44 H20       -20.3776    15.6049   -19.0278 H          1  LIG1   0.1300
     45 H21       -20.9051    16.4981   -17.5819 H          1  LIG1   0.1500
     46 H22       -21.7145    17.5967   -19.6531 H          1  LIG1   0.1200
     47 H23       -20.5653    18.6419   -18.7825 H          1  LIG1   0.0800
     48 H24       -19.9245    16.8527   -21.1730 H          1  LIG1   0.0900
     49 H25       -20.0263    18.6311   -21.1855 H          1  LIG1   0.1000
     50 H26       -16.7087    19.1741   -22.8822 H          1  LIG1   0.0700
     51 H27       -18.3638    19.4915   -22.3090 H          1  LIG1   0.0700
     52 H28       -16.9705    19.9192   -21.2870 H          1  LIG1   0.0700
     53 H29       -16.0362    16.5541   -20.5551 H          1  LIG1   0.4000
     54 H30       -16.9530    16.7152   -18.9095 H          1  LIG1   0.1400
     55 H31       -18.1533    15.7281   -19.7761 H          1  LIG1   0.1300
@<TRIPOS>BOND
     1    1    2 1
     2    1   28 1
     3    1   29 1
     4    1   30 1
     5    2    8 ar
     6    2    3 ar
     7    3    4 ar
     8    3   31 1
     9    4    5 ar
    10    4   32 1
    11    5    6 ar
    12    5   33 1
    13    6    7 1
    14    6    8 ar
    15    7   34 1
    16    7   35 1
    17    7   36 1
    18    8    9 1
    19    9   10 1
    20   10   11 1
    21   10   37 1
    22   10   38 1
    23   11   12 1
    24   11   39 1
    25   11   40 1
    26   12   13 am
    27   12   41 1
    28   13   14 2
    29   13   15 1
    30   15   16 1
    31   15   42 1
    32   15   43 1
    33   16   17 1
    34   16   27 1
    35   16   18 1
    36   18   19 1
    37   18   44 1
    38   18   45 1
    39   19   20 1
    40   19   46 1
    41   19   47 1
    42   20   21 1
    43   20   48 1
    44   20   49 1
    45   21   22 1
    46   21   23 1
    47   21   27 1
    48   23   24 1
    49   23   25 1
    50   23   26 1
    51   25   50 1
    52   25   51 1
    53   25   52 1
    54   26   53 1
    55   27   54 1
    56   27   55 1
##########                 Name:     ZINC000372601412
##########          Protonation:                 none
##########               SMILES:   CCN(CC)C(=O)CN1CC[NH+](C[C@@H]2CC3=CC=CC=C3O2)CC1
##########            Long Name:   NO_LONG_NAME
##########          FlexRecCode: 1
##########               Number:                 3695
##########   Ligand Source File: /nfs/db/export/3D/ED/ADMO/EDADMO.xaic.db2.gz
##########                 Rank:                    1
##########               Setnum:                  158
##########             Matchnum:                    1
##########                Cloud:                    1
##########        Electrostatic:           -45.371616
##########                 Gist:             0.000000
##########        Van der Waals:           -29.915230
##########  Ligand Polar Desolv:            16.376820
########## Ligand Apolar Desolv:            -4.669461
##########      Internal Energy:             0.000000
##########      Receptor Energy:             0.000000
########## Receptor Desolvation:             0.000000
########## Receptor Hydrophobic:             0.000000
##########         Total Energy:           -63.579491
##########        Ligand Charge:             1.000000
##########            Arbitrary:    +999.9990
##########        Ligand Energy:             0.000000

@<TRIPOS>MOLECULE
 ZINC000372601412      none
   54    56     0     0     0



@<TRIPOS>ATOM
      1 C1        -16.1146    20.6849   -22.3156 C.3        1  LIG1  -0.1700
      2 C2        -17.3181    20.0543   -23.0191 C.3        1  LIG1   0.1100
      3 N1        -18.1007    19.2827   -22.0504 N.am       1  LIG1  -0.6100
      4 C3        -19.1846    19.9271   -21.3047 C.3        1  LIG1   0.1000
      5 C4        -20.4931    19.7896   -22.0856 C.3        1  LIG1  -0.1700
      6 C5        -17.8235    17.9798   -21.8453 C.2        1  LIG1   0.5100
      7 O1        -16.9262    17.4461   -22.4627 O.2        1  LIG1  -0.5200
      8 C6        -18.6285    17.1859   -20.8489 C.3        1  LIG1   0.0400
      9 N2        -17.9988    17.2750   -19.5319 N.3        1  LIG1  -0.5200
     10 C7        -18.9803    17.0100   -18.4718 C.3        1  LIG1   0.0300
     11 C8        -18.3476    17.1428   -17.0905 C.3        1  LIG1   0.0000
     12 N3        -17.1760    16.1985   -16.9905 N.4        1  LIG1  -0.3900
     13 H1        -17.5483    15.2348   -17.1417 H          1  LIG1   0.4300
     14 C9        -16.5444    16.2269   -15.6277 C.3        1  LIG1   0.0000
     15 C10       -15.7275    14.9505   -15.4174 C.3        1  LIG1   0.0500
     16 H2        -14.9418    14.8685   -16.1685 H          1  LIG1   0.1100
     17 C11       -16.6427    13.7035   -15.4434 C.3        1  LIG1  -0.1000
     18 C12       -15.9958    12.8182   -14.3958 C.ar       1  LIG1  -0.1700
     19 C13       -16.1281    11.4779   -14.1086 C.ar       1  LIG1  -0.0700
     20 C14       -15.3945    10.9160   -13.0784 C.ar       1  LIG1  -0.1300
     21 C15       -14.5308    11.7045   -12.3413 C.ar       1  LIG1  -0.0800
     22 C16       -14.3995    13.0484   -12.6251 C.ar       1  LIG1  -0.1300
     23 C17       -15.1365    13.6223   -13.6577 C.ar       1  LIG1   0.0900
     24 O2        -15.1710    14.9145   -14.0923 O.3        1  LIG1  -0.3100
     25 C18       -16.1716    16.4584   -18.0847 C.3        1  LIG1   0.0000
     26 C19       -16.8656    16.3451   -19.4379 C.3        1  LIG1   0.0200
     27 H3        -15.5324    21.2591   -23.0364 H          1  LIG1   0.0600
     28 H4        -16.4628    21.3452   -21.5213 H          1  LIG1   0.0600
     29 H5        -15.4911    19.8996   -21.8882 H          1  LIG1   0.0700
     30 H6        -17.9416    20.8397   -23.4466 H          1  LIG1   0.0800
     31 H7        -16.9699    19.3941   -23.8132 H          1  LIG1   0.0900
     32 H8        -19.2905    19.4485   -20.3312 H          1  LIG1   0.0800
     33 H9        -18.9529    20.9832   -21.1670 H          1  LIG1   0.0900
     34 H10       -21.2996    20.2691   -21.5307 H          1  LIG1   0.0600
     35 H11       -20.3872    20.2684   -23.0591 H          1  LIG1   0.0600
     36 H12       -20.7247    18.7336   -22.2234 H          1  LIG1   0.0700
     37 H13       -19.6401    17.5883   -20.7959 H          1  LIG1   0.0800
     38 H14       -18.6684    16.1427   -21.1628 H          1  LIG1   0.1200
     39 H15       -19.8118    17.7215   -18.5627 H          1  LIG1   0.0600
     40 H16       -19.3800    15.9946   -18.5946 H          1  LIG1   0.1300
     41 H17       -17.9876    18.1549   -16.9383 H          1  LIG1   0.1400
     42 H18       -19.0669    16.8809   -16.3215 H          1  LIG1   0.1400
     43 H19       -15.8895    17.0946   -15.5488 H          1  LIG1   0.1400
     44 H20       -17.3231    16.2893   -14.8675 H          1  LIG1   0.1500
     45 H21       -17.6625    13.9627   -15.1586 H          1  LIG1   0.1000
     46 H22       -16.6229    13.2261   -16.4230 H          1  LIG1   0.1100
     47 H23       -16.8042    10.8657   -14.6869 H          1  LIG1   0.1300
     48 H24       -15.4966     9.8652   -12.8509 H          1  LIG1   0.1400
     49 H25       -13.9562    11.2664   -11.5386 H          1  LIG1   0.1400
     50 H26       -13.7225    13.6573   -12.0443 H          1  LIG1   0.1300
     51 H27       -15.7690    17.4572   -17.9519 H          1  LIG1   0.1300
     52 H28       -15.3793    15.7213   -18.0064 H          1  LIG1   0.1400
     53 H29       -17.2282    15.3179   -19.5777 H          1  LIG1   0.1400
     54 H30       -16.1467    16.5691   -20.2373 H          1  LIG1   0.0600
@<TRIPOS>BOND
     1    1    2 1
     2    1   27 1
     3    1   28 1
     4    1   29 1
     5    2    3 1
     6    2   30 1
     7    2   31 1
     8    3    4 1
     9    3    6 am
    10    4    5 1
    11    4   32 1
    12    4   33 1
    13    5   34 1
    14    5   35 1
    15    5   36 1
    16    6    7 2
    17    6    8 1
    18    8    9 1
    19    8   37 1
    20    8   38 1
    21    9   26 1
    22    9   10 1
    23   10   11 1
    24   10   39 1
    25   10   40 1
    26   11   12 1
    27   11   41 1
    28   11   42 1
    29   12   13 1
    30   12   14 1
    31   12   25 1
    32   14   15 1
    33   14   43 1
    34   14   44 1
    35   15   16 1
    36   15   24 1
    37   15   17 1
    38   17   18 1
    39   17   45 1
    40   17   46 1
    41   18   23 ar
    42   18   19 ar
    43   19   20 ar
    44   19   47 1
    45   20   21 ar
    46   20   48 1
    47   21   22 ar
    48   21   49 1
    49   22   23 ar
    50   22   50 1
    51   23   24 1
    52   25   26 1
    53   25   51 1
    54   25   52 1
    55   26   53 1
    56   26   54 1
##########                 Name:     ZINC000576765857
##########          Protonation:                 none
##########               SMILES:   CN1C(=O)C(C[N@@H+](C)C[C@@H](O)CC2=CC=CC=C2)=CC2=CC=CC=C21
##########            Long Name:   NO_LONG_NAME
##########          FlexRecCode: 1
##########               Number:                10924
##########   Ligand Source File: /nfs/db/export/3D/EF/ADMO/EFADMO.xadl.db2.gz
##########                 Rank:                    1
##########               Setnum:                  208
##########             Matchnum:                    1
##########                Cloud:                    1
##########        Electrostatic:           -41.869946
##########                 Gist:             0.000000
##########        Van der Waals:           -30.821836
##########  Ligand Polar Desolv:            15.248761
########## Ligand Apolar Desolv:            -4.971596
##########      Internal Energy:             0.000000
##########      Receptor Energy:             0.000000
########## Receptor Desolvation:             0.000000
########## Receptor Hydrophobic:             0.000000
##########         Total Energy:           -62.414616
##########        Ligand Charge:             1.000000
##########            Arbitrary:    +999.9990
##########        Ligand Energy:             0.000000

@<TRIPOS>MOLECULE
 ZINC000576765857      none
   50    52     0     0     0



@<TRIPOS>ATOM
      1 C1        -13.3208    17.1629   -13.7721 C.3        1  LIG1   0.0600
      2 N1        -14.2554    16.3535   -14.5580 N.am       1  LIG1  -0.5100
      3 C2        -14.8377    16.8844   -15.6473 C.2        1  LIG1   0.5400
      4 O1        -14.5759    18.0329   -15.9608 O.2        1  LIG1  -0.5400
      5 C3        -15.7443    16.1453   -16.4372 C.2        1  LIG1  -0.2800
      6 C4        -16.3732    16.7802   -17.6508 C.3        1  LIG1   0.0600
      7 N2        -17.8107    16.4785   -17.6718 N.4        1  LIG1  -0.3800
      8 H1        -17.9441    15.4790   -17.7079 H          1  LIG1   0.4200
      9 C5        -18.4411    17.0130   -16.4573 C.3        1  LIG1  -0.0400
     10 C6        -18.4237    17.0973   -18.8547 C.3        1  LIG1  -0.0500
     11 C7        -17.7672    16.5407   -20.1196 C.3        1  LIG1   0.0900
     12 H2        -16.8168    17.0470   -20.2886 H          1  LIG1   0.1200
     13 O2        -17.5385    15.1392   -19.9601 O.3        1  LIG1  -0.5500
     14 C8        -18.6895    16.7738   -21.3177 C.3        1  LIG1  -0.1100
     15 C9        -18.9307    18.2518   -21.4860 C.ar       1  LIG1  -0.1000
     16 C10       -19.9918    18.8571   -20.8389 C.ar       1  LIG1  -0.1200
     17 C11       -20.2130    20.2128   -20.9932 C.ar       1  LIG1  -0.1200
     18 C12       -19.3730    20.9633   -21.7944 C.ar       1  LIG1  -0.1100
     19 C13       -18.3115    20.3583   -22.4408 C.ar       1  LIG1  -0.1200
     20 C14       -18.0877    19.0033   -22.2831 C.ar       1  LIG1  -0.1000
     21 C15       -16.0512    14.8662   -16.1085 C.2        1  LIG1   0.0600
     22 C16       -15.4228    14.2786   -14.9238 C.ar       1  LIG1  -0.1600
     23 C17       -15.6995    12.9641   -14.5349 C.ar       1  LIG1  -0.0400
     24 C18       -15.0962    12.4451   -13.4243 C.ar       1  LIG1  -0.1400
     25 C19       -14.2110    13.2109   -12.6784 C.ar       1  LIG1  -0.0400
     26 C20       -13.9236    14.5089   -13.0427 C.ar       1  LIG1  -0.1700
     27 C21       -14.5207    15.0565   -14.1732 C.ar       1  LIG1   0.2000
     28 H3        -13.2330    18.1531   -14.2190 H          1  LIG1   0.0800
     29 H4        -13.6908    17.2564   -12.7510 H          1  LIG1   0.1000
     30 H5        -12.3431    16.6811   -13.7614 H          1  LIG1   0.0900
     31 H6        -16.2290    17.8599   -17.6118 H          1  LIG1   0.1400
     32 H7        -15.9054    16.3834   -18.5518 H          1  LIG1   0.1400
     33 H8        -19.5077    16.7891   -16.4729 H          1  LIG1   0.1300
     34 H9        -17.9862    16.5539   -15.5796 H          1  LIG1   0.1200
     35 H10       -18.2970    18.0927   -16.4183 H          1  LIG1   0.1100
     36 H11       -19.4903    16.8735   -18.8702 H          1  LIG1   0.1400
     37 H12       -18.2796    18.1771   -18.8156 H          1  LIG1   0.1400
     38 H13       -18.3423    14.6244   -19.8057 H          1  LIG1   0.3900
     39 H14       -18.2220    16.3770   -22.2188 H          1  LIG1   0.0900
     40 H15       -19.6399    16.2674   -21.1485 H          1  LIG1   0.0900
     41 H16       -20.6481    18.2706   -20.2130 H          1  LIG1   0.1200
     42 H17       -21.0424    20.6856   -20.4882 H          1  LIG1   0.1300
     43 H18       -19.5463    22.0225   -21.9156 H          1  LIG1   0.1300
     44 H19       -17.6554    20.9446   -23.0670 H          1  LIG1   0.1300
     45 H20       -17.2582    18.5306   -22.7880 H          1  LIG1   0.1200
     46 H21       -16.7441    14.2936   -16.7071 H          1  LIG1   0.1600
     47 H22       -16.3875    12.3619   -15.1098 H          1  LIG1   0.1400
     48 H23       -15.3103    11.4300   -13.1239 H          1  LIG1   0.1400
     49 H24       -13.7426    12.7854   -11.8031 H          1  LIG1   0.1400
     50 H25       -13.2340    15.0968   -12.4553 H          1  LIG1   0.1400
@<TRIPOS>BOND
     1    1    2 1
     2    1   28 1
     3    1   29 1
     4    1   30 1
     5    2   27 1
     6    2    3 am
     7    3    4 2
     8    3    5 1
     9    5    6 1
    10    5   21 2
    11    6    7 1
    12    6   31 1
    13    6   32 1
    14    7    8 1
    15    7    9 1
    16    7   10 1
    17    9   33 1
    18    9   34 1
    19    9   35 1
    20   10   11 1
    21   10   36 1
    22   10   37 1
    23   11   12 1
    24   11   13 1
    25   11   14 1
    26   13   38 1
    27   14   15 1
    28   14   39 1
    29   14   40 1
    30   15   20 ar
    31   15   16 ar
    32   16   17 ar
    33   16   41 1
    34   17   18 ar
    35   17   42 1
    36   18   19 ar
    37   18   43 1
    38   19   20 ar
    39   19   44 1
    40   20   45 1
    41   21   22 1
    42   21   46 1
    43   22   27 ar
    44   22   23 ar
    45   23   24 ar
    46   23   47 1
    47   24   25 ar
    48   24   48 1
    49   25   26 ar
    50   25   49 1
    51   26   27 ar
    52   26   50 1
##########                 Name:     ZINC000030269538
##########          Protonation:                 none
##########               SMILES:   CCC[C@H](C)[N@H+](C)CC(=O)NC1=CC([N+](=O)[O-])=CC=C1C
##########            Long Name:   NO_LONG_NAME
##########          FlexRecCode: 1
##########               Number:                 2268
##########   Ligand Source File: /nfs/db/export/3D/CF/ADRO/CFADRO.xbaf.db2.gz
##########                 Rank:                    1
##########               Setnum:                   52
##########             Matchnum:                    1
##########                Cloud:                    1
##########        Electrostatic:           -45.774509
##########                 Gist:             0.000000
##########        Van der Waals:           -29.997847
##########  Ligand Polar Desolv:            18.366131
########## Ligand Apolar Desolv:            -5.632214
##########      Internal Energy:             0.000000
##########      Receptor Energy:             0.000000
########## Receptor Desolvation:             0.000000
########## Receptor Hydrophobic:             0.000000
##########         Total Energy:           -63.038437
##########        Ligand Charge:             1.000000
##########            Arbitrary:    +999.9990
##########        Ligand Energy:             0.000000

@<TRIPOS>MOLECULE
 ZINC000030269538      none
   45    45     0     0     0



@<TRIPOS>ATOM
      1 C1        -22.1524    17.6606   -20.0773 C.3        1  LIG1  -0.1600
      2 C2        -20.6229    17.6962   -20.0906 C.3        1  LIG1  -0.1400
      3 C3        -20.0874    17.0917   -18.7910 C.3        1  LIG1  -0.1500
      4 C4        -18.5579    17.1274   -18.8044 C.3        1  LIG1   0.0200
      5 H1        -18.2193    18.1598   -18.8915 H          1  LIG1   0.1500
      6 C5        -18.0393    16.3184   -19.9949 C.3        1  LIG1  -0.1900
      7 N1        -18.0437    16.5470   -17.5567 N.4        1  LIG1  -0.3700
      8 H2        -18.3571    15.5914   -17.4761 H          1  LIG1   0.4300
      9 C6        -18.5415    17.3239   -16.4136 C.3        1  LIG1  -0.0600
     10 C7        -16.5750    16.5813   -17.5695 C.3        1  LIG1  -0.0400
     11 C8        -16.0474    15.9860   -16.2896 C.2        1  LIG1   0.5000
     12 O1        -15.8534    16.6959   -15.3254 O.2        1  LIG1  -0.5000
     13 N2        -15.7913    14.6649   -16.2163 N.am       1  LIG1  -0.6400
     14 C9        -15.3014    14.1122   -15.0278 C.ar       1  LIG1   0.1200
     15 C10       -14.5179    14.8784   -14.1753 C.ar       1  LIG1  -0.0500
     16 C11       -14.0357    14.3298   -13.0028 C.ar       1  LIG1  -0.0300
     17 N3        -13.2004    15.1460   -12.0934 N.pl3      1  LIG1   0.0200
     18 O2        -12.9385    16.3007   -12.3790 O.2        1  LIG1  -0.1500
     19 O3        -12.7748    14.6628   -11.0596 O.2        1  LIG1  -0.1400
     20 C12       -14.3330    13.0193   -12.6776 C.ar       1  LIG1  -0.0500
     21 C13       -15.1128    12.2532   -13.5249 C.ar       1  LIG1  -0.1000
     22 C14       -15.6025    12.7976   -14.6957 C.ar       1  LIG1  -0.0500
     23 C15       -16.4526    11.9624   -15.6181 C.3        1  LIG1  -0.1300
     24 H3        -22.5340    18.0912   -21.0031 H          1  LIG1   0.0700
     25 H4        -22.4911    16.6281   -19.9902 H          1  LIG1   0.0700
     26 H5        -22.5220    18.2369   -19.2291 H          1  LIG1   0.0600
     27 H6        -20.2533    17.1198   -20.9387 H          1  LIG1   0.0800
     28 H7        -20.2844    18.7286   -20.1777 H          1  LIG1   0.0600
     29 H8        -20.4569    17.6682   -17.9430 H          1  LIG1   0.0900
     30 H9        -20.4260    16.0594   -18.7040 H          1  LIG1   0.1200
     31 H10       -16.9496    16.3437   -20.0044 H          1  LIG1   0.0800
     32 H11       -18.3780    15.2859   -19.9077 H          1  LIG1   0.0800
     33 H12       -18.4209    16.7490   -20.9208 H          1  LIG1   0.1100
     34 H13       -18.1600    16.8933   -15.4878 H          1  LIG1   0.1300
     35 H14       -18.2028    18.3563   -16.5009 H          1  LIG1   0.1400
     36 H15       -19.6313    17.2987   -16.4042 H          1  LIG1   0.1200
     37 H16       -16.2057    16.0049   -18.4177 H          1  LIG1   0.1700
     38 H17       -16.2365    17.6137   -17.6567 H          1  LIG1   0.1700
     39 H18       -15.9464    14.0972   -16.9874 H          1  LIG1   0.4300
     40 H19       -14.2853    15.9022   -14.4287 H          1  LIG1   0.1600
     41 H20       -13.9551    12.5928   -11.7602 H          1  LIG1   0.1600
     42 H21       -15.3429    11.2297   -13.2682 H          1  LIG1   0.1600
     43 H22       -16.5798    10.9668   -15.1931 H          1  LIG1   0.0900
     44 H23       -17.4281    12.4333   -15.7391 H          1  LIG1   0.0700
     45 H24       -15.9646    11.8830   -16.5896 H          1  LIG1   0.0900
@<TRIPOS>BOND
     1    1    2 1
     2    1   24 1
     3    1   25 1
     4    1   26 1
     5    2    3 1
     6    2   27 1
     7    2   28 1
     8    3    4 1
     9    3   29 1
    10    3   30 1
    11    4    5 1
    12    4    6 1
    13    4    7 1
    14    6   31 1
    15    6   32 1
    16    6   33 1
    17    7    8 1
    18    7    9 1
    19    7   10 1
    20    9   34 1
    21    9   35 1
    22    9   36 1
    23   10   11 1
    24   10   37 1
    25   10   38 1
    26   11   12 2
    27   11   13 am
    28   13   14 1
    29   13   39 1
    30   14   22 ar
    31   14   15 ar
    32   15   16 ar
    33   15   40 1
    34   16   17 1
    35   16   20 ar
    36   17   18 2
    37   17   19 2
    38   20   21 ar
    39   20   41 1
    40   21   22 ar
    41   21   42 1
    42   22   23 1
    43   23   43 1
    44   23   44 1
    45   23   45 1
##########                 Name:     ZINC000593631262
##########          Protonation:                 none
##########               SMILES:   CS[C@@H]1CC[N@H+](CC2=CN(C3=CC=CC(C)=C3)N=C2C)C1
##########            Long Name:   NO_LONG_NAME
##########          FlexRecCode: 1
##########               Number:                 4018
##########   Ligand Source File: /nfs/db/export/3D/DG/ADRO/DGADRO.xcba.db2.gz
##########                 Rank:                    1
##########               Setnum:                   54
##########             Matchnum:                    1
##########                Cloud:                    1
##########        Electrostatic:           -38.709831
##########                 Gist:             0.000000
##########        Van der Waals:           -31.311213
##########  Ligand Polar Desolv:            14.137999
########## Ligand Apolar Desolv:            -6.602540
##########      Internal Energy:             0.000000
##########      Receptor Energy:             0.000000
########## Receptor Desolvation:             0.000000
########## Receptor Hydrophobic:             0.000000
##########         Total Energy:           -62.485584
##########        Ligand Charge:             1.000000
##########            Arbitrary:    +999.9990
##########        Ligand Energy:             0.000000

@<TRIPOS>MOLECULE
 ZINC000593631262      none
   45    47     0     0     0



@<TRIPOS>ATOM
      1 C1        -20.6433    18.5949   -21.1345 C.3        1  LIG1  -0.1300
      2 S1        -21.5888    17.1728   -20.5228 S.3        1  LIG1  -0.1900
      3 C2        -20.6676    16.6775   -19.0407 C.3        1  LIG1  -0.1000
      4 H1        -21.1345    15.8161   -18.5629 H          1  LIG1   0.1200
      5 C3        -20.5364    17.8612   -18.0465 C.3        1  LIG1  -0.1400
      6 C4        -19.2485    17.5199   -17.2678 C.3        1  LIG1  -0.0100
      7 N1        -18.4570    16.6059   -18.1116 N.4        1  LIG1  -0.3900
      8 H2        -18.3338    15.7250   -17.6353 H          1  LIG1   0.4300
      9 C5        -17.1454    17.2045   -18.3934 C.3        1  LIG1   0.0900
     10 C6        -16.2356    17.0012   -17.2092 C.2        1  LIG1  -0.3100
     11 C7        -16.0768    15.8500   -16.5157 C.2        1  LIG1   0.1000
     12 N2        -15.1763    16.0821   -15.5341 N.pl3      1  LIG1  -0.2900
     13 C8        -14.7278    15.1492   -14.5886 C.ar       1  LIG1   0.1300
     14 C9        -13.7997    15.5248   -13.6272 C.ar       1  LIG1  -0.1400
     15 C10       -13.3595    14.6034   -12.6969 C.ar       1  LIG1  -0.0900
     16 C11       -13.8424    13.3081   -12.7228 C.ar       1  LIG1  -0.1100
     17 C12       -14.7672    12.9309   -13.6795 C.ar       1  LIG1  -0.0600
     18 C13       -15.2910    11.5181   -13.7043 C.3        1  LIG1  -0.1200
     19 C14       -15.2152    13.8491   -14.6086 C.ar       1  LIG1  -0.1100
     20 N3        -14.7704    17.4194   -15.6297 N.2        1  LIG1  -0.2700
     21 C15       -15.4015    17.9677   -16.6365 C.2        1  LIG1   0.1000
     22 C16       -15.2606    19.3963   -17.0950 C.3        1  LIG1  -0.0900
     23 C17       -19.1843    16.3871   -19.3805 C.3        1  LIG1   0.0200
     24 H3        -21.1132    18.9817   -22.0389 H          1  LIG1   0.0900
     25 H4        -20.6253    19.3742   -20.3726 H          1  LIG1   0.0800
     26 H5        -19.6233    18.2834   -21.3599 H          1  LIG1   0.1200
     27 H6        -20.4244    18.8038   -18.5823 H          1  LIG1   0.1100
     28 H7        -21.3944    17.8977   -17.3753 H          1  LIG1   0.1100
     29 H8        -18.6808    18.4298   -17.0729 H          1  LIG1   0.1300
     30 H9        -19.5024    17.0302   -16.3277 H          1  LIG1   0.1300
     31 H10       -16.7100    16.7285   -19.2720 H          1  LIG1   0.1400
     32 H11       -17.2655    18.2715   -18.5803 H          1  LIG1   0.1400
     33 H12       -16.5795    14.9143   -16.7110 H          1  LIG1   0.1900
     34 H13       -13.4218    16.5364   -13.6066 H          1  LIG1   0.1300
     35 H14       -12.6372    14.8949   -11.9488 H          1  LIG1   0.1400
     36 H15       -13.4967    12.5893   -11.9947 H          1  LIG1   0.1400
     37 H16       -16.0045    11.4094   -14.5211 H          1  LIG1   0.0800
     38 H17       -14.4621    10.8259   -13.8515 H          1  LIG1   0.0700
     39 H18       -15.7853    11.2972   -12.7583 H          1  LIG1   0.0800
     40 H19       -15.9376    13.5541   -15.3553 H          1  LIG1   0.1400
     41 H20       -14.5401    19.9121   -16.4603 H          1  LIG1   0.0900
     42 H21       -14.9129    19.4139   -18.1279 H          1  LIG1   0.0800
     43 H22       -16.2268    19.8963   -17.0282 H          1  LIG1   0.0900
     44 H23       -19.0650    15.3560   -19.7133 H          1  LIG1   0.1500
     45 H24       -18.8288    17.0772   -20.1455 H          1  LIG1   0.1400
@<TRIPOS>BOND
     1    1    2 1
     2    1   24 1
     3    1   25 1
     4    1   26 1
     5    2    3 1
     6    3    4 1
     7    3   23 1
     8    3    5 1
     9    5    6 1
    10    5   27 1
    11    5   28 1
    12    6    7 1
    13    6   29 1
    14    6   30 1
    15    7    8 1
    16    7    9 1
    17    7   23 1
    18    9   10 1
    19    9   31 1
    20    9   32 1
    21   10   21 1
    22   10   11 2
    23   11   12 1
    24   11   33 1
    25   12   13 1
    26   12   20 1
    27   13   19 ar
    28   13   14 ar
    29   14   15 ar
    30   14   34 1
    31   15   16 ar
    32   15   35 1
    33   16   17 ar
    34   16   36 1
    35   17   18 1
    36   17   19 ar
    37   18   37 1
    38   18   38 1
    39   18   39 1
    40   19   40 1
    41   20   21 2
    42   21   22 1
    43   22   41 1
    44   22   42 1
    45   22   43 1
    46   23   44 1
    47   23   45 1
##########                 Name:     ZINC000023991616
##########          Protonation:                 none
##########               SMILES:   CCCC[N@H+](C)[C@H](C)C(=O)NC1=CC([N+](=O)[O-])=CC=C1OC
##########            Long Name:   NO_LONG_NAME
##########          FlexRecCode: 1
##########               Number:                 8963
##########   Ligand Source File: /nfs/db/export/3D/DF/ADRO/DFADRO.xasq.db2.gz
##########                 Rank:                    1
##########               Setnum:                   54
##########             Matchnum:                    1
##########                Cloud:                    1
##########        Electrostatic:           -48.205006
##########                 Gist:             0.000000
##########        Van der Waals:           -28.542465
##########  Ligand Polar Desolv:            17.944956
########## Ligand Apolar Desolv:            -4.621578
##########      Internal Energy:             0.000000
##########      Receptor Energy:             0.000000
########## Receptor Desolvation:             0.000000
########## Receptor Hydrophobic:             0.000000
##########         Total Energy:           -63.424088
##########        Ligand Charge:             1.000000
##########            Arbitrary:    +999.9990
##########        Ligand Energy:             0.000000

@<TRIPOS>MOLECULE
 ZINC000023991616      none
   46    46     0     0     0



@<TRIPOS>ATOM
      1 C1        -22.3791    18.3887   -19.7646 C.3        1  LIG1  -0.1600
      2 C2        -20.8575    18.3357   -19.9152 C.3        1  LIG1  -0.1200
      3 C3        -20.2697    17.4239   -18.8365 C.3        1  LIG1  -0.1500
      4 C4        -18.7480    17.3709   -18.9870 C.3        1  LIG1  -0.0200
      5 N1        -18.1836    16.4954   -17.9512 N.4        1  LIG1  -0.3700
      6 H1        -18.7781    15.6888   -17.8321 H          1  LIG1   0.4300
      7 C5        -18.0963    17.2308   -16.6826 C.3        1  LIG1  -0.0600
      8 C6        -16.8412    16.0586   -18.3574 C.3        1  LIG1   0.0100
      9 H2        -16.3132    16.8913   -18.8221 H          1  LIG1   0.1600
     10 C7        -16.9605    14.9079   -19.3586 C.3        1  LIG1  -0.1800
     11 C8        -16.0765    15.5926   -17.1455 C.2        1  LIG1   0.5000
     12 O1        -15.0406    16.1414   -16.8338 O.2        1  LIG1  -0.5000
     13 N2        -16.5436    14.5659   -16.4076 N.am       1  LIG1  -0.6300
     14 C9        -15.8326    14.1326   -15.2806 C.ar       1  LIG1   0.0900
     15 C10       -15.0711    15.0327   -14.5504 C.ar       1  LIG1  -0.0300
     16 C11       -14.3708    14.6029   -13.4386 C.ar       1  LIG1  -0.0600
     17 N3        -13.5585    15.5649   -12.6604 N.pl3      1  LIG1   0.0300
     18 O2        -13.5077    16.7336   -12.9997 O.2        1  LIG1  -0.1500
     19 O3        -12.9410    15.1878   -11.6806 O.2        1  LIG1  -0.1500
     20 C12       -14.4276    13.2770   -13.0517 C.ar       1  LIG1  -0.0100
     21 C13       -15.1848    12.3736   -13.7749 C.ar       1  LIG1  -0.1900
     22 C14       -15.8932    12.7972   -14.8872 C.ar       1  LIG1   0.1700
     23 O4        -16.6385    11.9103   -15.5990 O.3        1  LIG1  -0.3100
     24 C15       -15.9850    11.2258   -16.6698 C.3        1  LIG1   0.0200
     25 H3        -22.7979    19.0383   -20.5332 H          1  LIG1   0.0600
     26 H4        -22.7902    17.3851   -19.8736 H          1  LIG1   0.0600
     27 H5        -22.6333    18.7805   -18.7798 H          1  LIG1   0.0700
     28 H6        -20.6033    17.9440   -20.9002 H          1  LIG1   0.0700
     29 H7        -20.4464    19.3393   -19.8063 H          1  LIG1   0.0700
     30 H8        -20.5239    17.8156   -17.8516 H          1  LIG1   0.0900
     31 H9        -20.6807    16.4203   -18.9454 H          1  LIG1   0.0900
     32 H10       -18.4938    16.9792   -19.9719 H          1  LIG1   0.1400
     33 H11       -18.3370    18.3745   -18.8779 H          1  LIG1   0.1300
     34 H12       -17.6775    16.5810   -15.9141 H          1  LIG1   0.1300
     35 H13       -17.4543    18.1022   -16.8111 H          1  LIG1   0.1300
     36 H14       -19.0925    17.5548   -16.3811 H          1  LIG1   0.1200
     37 H15       -15.9644    14.5838   -19.6600 H          1  LIG1   0.1100
     38 H16       -17.4885    14.0752   -18.8940 H          1  LIG1   0.0900
     39 H17       -17.5137    15.2450   -20.2353 H          1  LIG1   0.1000
     40 H18       -17.3720    14.1271   -16.6567 H          1  LIG1   0.4300
     41 H19       -15.0249    16.0691   -14.8504 H          1  LIG1   0.1900
     42 H20       -13.8789    12.9456   -12.1826 H          1  LIG1   0.1700
     43 H21       -15.2271    11.3385   -13.4700 H          1  LIG1   0.1600
     44 H22       -16.6905    10.5503   -17.1534 H          1  LIG1   0.0700
     45 H23       -15.6207    11.9519   -17.3964 H          1  LIG1   0.0700
     46 H24       -15.1452    10.6532   -16.2760 H          1  LIG1   0.1200
@<TRIPOS>BOND
     1    1    2 1
     2    1   25 1
     3    1   26 1
     4    1   27 1
     5    2    3 1
     6    2   28 1
     7    2   29 1
     8    3    4 1
     9    3   30 1
    10    3   31 1
    11    4    5 1
    12    4   32 1
    13    4   33 1
    14    5    6 1
    15    5    7 1
    16    5    8 1
    17    7   34 1
    18    7   35 1
    19    7   36 1
    20    8    9 1
    21    8   10 1
    22    8   11 1
    23   10   37 1
    24   10   38 1
    25   10   39 1
    26   11   12 2
    27   11   13 am
    28   13   14 1
    29   13   40 1
    30   14   22 ar
    31   14   15 ar
    32   15   16 ar
    33   15   41 1
    34   16   17 1
    35   16   20 ar
    36   17   18 2
    37   17   19 2
    38   20   21 ar
    39   20   42 1
    40   21   22 ar
    41   21   43 1
    42   22   23 1
    43   23   24 1
    44   24   44 1
    45   24   45 1
    46   24   46 1
##########                 Name:     ZINC000152725782
##########          Protonation:                 none
##########               SMILES:   OC[C@@H](CC1=CC=CC=C1)[NH2+]CC1=CN(C2=CC=C(Cl)C=C2)N=C1
##########            Long Name:   NO_LONG_NAME
##########          FlexRecCode: 1
##########               Number:                 7294
##########   Ligand Source File: /nfs/db/export/3D/EG/ADRO/EGADRO.xcgx.db2.gz
##########                 Rank:                    1
##########               Setnum:                  111
##########             Matchnum:                    1
##########                Cloud:                    1
##########        Electrostatic:           -43.145187
##########                 Gist:             0.000000
##########        Van der Waals:           -33.807800
##########  Ligand Polar Desolv:            14.714527
########## Ligand Apolar Desolv:            -5.622280
##########      Internal Energy:             0.000000
##########      Receptor Energy:             0.000000
########## Receptor Desolvation:             0.000000
########## Receptor Hydrophobic:             0.000000
##########         Total Energy:           -67.860741
##########        Ligand Charge:             1.000000
##########            Arbitrary:    +999.9990
##########        Ligand Energy:             0.000000

@<TRIPOS>MOLECULE
 ZINC000152725782      none
   45    47     0     0     0



@<TRIPOS>ATOM
      1 O1        -17.4621    16.0391   -20.3087 O.3        1  LIG1  -0.5800
      2 C1        -18.2030    17.2408   -20.0873 C.3        1  LIG1   0.0500
      3 C2        -18.9567    17.1379   -18.7597 C.3        1  LIG1   0.0400
      4 H1        -19.2225    18.1370   -18.4146 H          1  LIG1   0.1500
      5 C3        -20.2289    16.3115   -18.9582 C.3        1  LIG1  -0.0900
      6 C4        -21.2987    17.1761   -19.5736 C.ar       1  LIG1  -0.1300
      7 C5        -22.1603    17.8916   -18.7633 C.ar       1  LIG1  -0.1400
      8 C6        -23.1416    18.6847   -19.3280 C.ar       1  LIG1  -0.1100
      9 C7        -23.2611    18.7629   -20.7028 C.ar       1  LIG1  -0.1100
     10 C8        -22.3988    18.0482   -21.5133 C.ar       1  LIG1  -0.1100
     11 C9        -21.4147    17.2584   -20.9487 C.ar       1  LIG1  -0.1100
     12 N1        -18.1003    16.4862   -17.7598 N.4        1  LIG1  -0.5100
     13 H2        -18.6726    16.1231   -17.0122 H          1  LIG1   0.4200
     14 H3        -17.5933    15.7291   -18.1933 H          1  LIG1   0.4300
     15 C10       -17.1490    17.4651   -17.2170 C.3        1  LIG1   0.0800
     16 C11       -16.2705    16.7965   -16.1912 C.2        1  LIG1  -0.3100
     17 C12       -16.3288    15.4968   -15.8190 C.2        1  LIG1   0.1000
     18 N2        -15.3777    15.2948   -14.8793 N.pl3      1  LIG1  -0.3000
     19 C13       -15.1032    14.0827   -14.2301 C.ar       1  LIG1   0.1300
     20 C14       -14.0967    14.0173   -13.2762 C.ar       1  LIG1  -0.1200
     21 C15       -13.8285    12.8225   -12.6377 C.ar       1  LIG1  -0.0800
     22 C16       -14.5621    11.6909   -12.9482 C.ar       1  LIG1  -0.0300
     23 Cl1       -14.2231    10.1905   -12.1435 Cl         1  LIG1  -0.0400
     24 C17       -15.5659    11.7536   -13.8988 C.ar       1  LIG1  -0.0800
     25 C18       -15.8414    12.9473   -14.5362 C.ar       1  LIG1  -0.0900
     26 N3        -14.7152    16.5112   -14.6692 N.2        1  LIG1  -0.2600
     27 C19       -15.2467    17.4086   -15.4599 C.2        1  LIG1   0.0800
     28 H4        -18.0085    15.2424   -20.3518 H          1  LIG1   0.4100
     29 H5        -17.5186    18.0884   -20.0518 H          1  LIG1   0.0800
     30 H6        -18.9157    17.3831   -20.8997 H          1  LIG1   0.1000
     31 H7        -20.0166    15.4707   -19.6186 H          1  LIG1   0.1200
     32 H8        -20.5736    15.9381   -17.9940 H          1  LIG1   0.1100
     33 H9        -22.0671    17.8305   -17.6891 H          1  LIG1   0.1200
     34 H10       -23.8153    19.2431   -18.6947 H          1  LIG1   0.1300
     35 H11       -24.0282    19.3821   -21.1440 H          1  LIG1   0.1300
     36 H12       -22.4923    18.1090   -22.5874 H          1  LIG1   0.1300
     37 H13       -20.7411    16.7001   -21.5818 H          1  LIG1   0.1300
     38 H14       -16.5307    17.8572   -18.0246 H          1  LIG1   0.1400
     39 H15       -17.6966    18.2830   -16.7488 H          1  LIG1   0.1400
     40 H16       -17.0123    14.7541   -16.2034 H          1  LIG1   0.1900
     41 H17       -13.5238    14.9001   -13.0338 H          1  LIG1   0.1400
     42 H18       -13.0454    12.7711   -11.8957 H          1  LIG1   0.1500
     43 H19       -16.1371    10.8690   -14.1394 H          1  LIG1   0.1500
     44 H20       -16.6248    12.9958   -15.2780 H          1  LIG1   0.1500
     45 H21       -14.9509    18.4448   -15.5303 H          1  LIG1   0.2000
@<TRIPOS>BOND
     1    1    2 1
     2    1   28 1
     3    2    3 1
     4    2   29 1
     5    2   30 1
     6    3    4 1
     7    3    5 1
     8    3   12 1
     9    5    6 1
    10    5   31 1
    11    5   32 1
    12    6   11 ar
    13    6    7 ar
    14    7    8 ar
    15    7   33 1
    16    8    9 ar
    17    8   34 1
    18    9   10 ar
    19    9   35 1
    20   10   11 ar
    21   10   36 1
    22   11   37 1
    23   12   13 1
    24   12   14 1
    25   12   15 1
    26   15   16 1
    27   15   38 1
    28   15   39 1
    29   16   27 1
    30   16   17 2
    31   17   18 1
    32   17   40 1
    33   18   19 1
    34   18   26 1
    35   19   25 ar
    36   19   20 ar
    37   20   21 ar
    38   20   41 1
    39   21   22 ar
    40   21   42 1
    41   22   23 1
    42   22   24 ar
    43   24   25 ar
    44   24   43 1
    45   25   44 1
    46   26   27 2
    47   27   45 1
##########                 Name:     ZINC000649899543
##########          Protonation:                 none
##########               SMILES:   CC(C)C1=CC=CC(NC(=O)C[N@H+]2CC[C@]3(CC3(F)F)C2)=C1
##########            Long Name:   NO_LONG_NAME
##########          FlexRecCode: 1
##########               Number:                 9108
##########   Ligand Source File: /nfs/db/export/3D/DG/ADMO/DGADMO.xazu.db2.gz
##########                 Rank:                    1
##########               Setnum:                   85
##########             Matchnum:                    1
##########                Cloud:                    1
##########        Electrostatic:           -43.859154
##########                 Gist:             0.000000
##########        Van der Waals:           -28.064825
##########  Ligand Polar Desolv:            15.302978
########## Ligand Apolar Desolv:            -6.205125
##########      Internal Energy:             0.000000
##########      Receptor Energy:             0.000000
########## Receptor Desolvation:             0.000000
########## Receptor Hydrophobic:             0.000000
##########         Total Energy:           -62.826126
##########        Ligand Charge:             1.000000
##########            Arbitrary:    +999.9990
##########        Ligand Energy:             0.000000

@<TRIPOS>MOLECULE
 ZINC000649899543      none
   45    47     0     0     0



@<TRIPOS>ATOM
      1 C1        -14.1261    14.8811   -10.9820 C.3        1  LIG1  -0.1500
      2 C2        -13.5441    14.8725   -12.3970 C.3        1  LIG1  -0.0600
      3 C3        -12.2315    14.0864   -12.4037 C.3        1  LIG1  -0.1500
      4 C4        -14.5240    14.2223   -13.3392 C.ar       1  LIG1  -0.0500
      5 C5        -14.9172    12.9132   -13.1313 C.ar       1  LIG1  -0.1100
      6 C6        -15.8159    12.3126   -13.9942 C.ar       1  LIG1  -0.1000
      7 C7        -16.3239    13.0194   -15.0662 C.ar       1  LIG1  -0.1200
      8 C8        -15.9312    14.3348   -15.2776 C.ar       1  LIG1   0.1200
      9 N1        -16.4444    15.0540   -16.3626 N.am       1  LIG1  -0.6400
     10 C9        -16.5892    16.3912   -16.2769 C.2        1  LIG1   0.5000
     11 O1        -16.2747    16.9712   -15.2591 O.2        1  LIG1  -0.5100
     12 C10       -17.1419    17.1657   -17.4455 C.3        1  LIG1  -0.0300
     13 N2        -18.4930    16.6818   -17.7587 N.4        1  LIG1  -0.3800
     14 H1        -18.5310    15.6770   -17.6741 H          1  LIG1   0.4400
     15 C11       -19.4809    17.3069   -16.8514 C.3        1  LIG1   0.0000
     16 C12       -20.7648    17.5424   -17.6732 C.3        1  LIG1  -0.1000
     17 C13       -20.4176    17.0614   -19.0900 C.3        1  LIG1  -0.1900
     18 C14       -21.2170    15.9787   -19.7948 C.3        1  LIG1  -0.1500
     19 C15       -21.2641    17.4253   -20.2977 C.3        1  LIG1   0.2500
     20 F1        -22.4380    18.1512   -20.0694 F          1  LIG1  -0.1400
     21 F2        -20.5957    17.7168   -21.4917 F          1  LIG1  -0.1500
     22 C16       -18.8786    17.0945   -19.1347 C.3        1  LIG1   0.0400
     23 C17       -15.0327    14.9365   -14.4065 C.ar       1  LIG1  -0.1300
     24 H2        -15.0611    15.4412   -10.9772 H          1  LIG1   0.0600
     25 H3        -14.3145    13.8568   -10.6604 H          1  LIG1   0.0600
     26 H4        -13.4173    15.3513   -10.3005 H          1  LIG1   0.0600
     27 H5        -13.3557    15.8969   -12.7186 H          1  LIG1   0.0800
     28 H6        -11.8168    14.0801   -13.4117 H          1  LIG1   0.0600
     29 H7        -11.5228    14.5566   -11.7221 H          1  LIG1   0.0600
     30 H8        -12.4199    13.0621   -12.0820 H          1  LIG1   0.0600
     31 H9        -14.5214    12.3582   -12.2937 H          1  LIG1   0.1300
     32 H10       -16.1206    11.2896   -13.8295 H          1  LIG1   0.1300
     33 H11       -17.0254    12.5498   -15.7397 H          1  LIG1   0.1300
     34 H12       -16.6959    14.5901   -17.1765 H          1  LIG1   0.4200
     35 H13       -17.1850    18.2249   -17.1917 H          1  LIG1   0.1600
     36 H14       -16.4959    17.0258   -18.3122 H          1  LIG1   0.1700
     37 H15       -19.6922    16.6396   -16.0159 H          1  LIG1   0.1500
     38 H16       -19.0966    18.2579   -16.4825 H          1  LIG1   0.1300
     39 H17       -21.5891    16.9574   -17.2652 H          1  LIG1   0.1200
     40 H18       -21.0193    18.6022   -17.6840 H          1  LIG1   0.1200
     41 H19       -20.6652    15.2546   -20.3941 H          1  LIG1   0.1400
     42 H20       -22.1005    15.5931   -19.2860 H          1  LIG1   0.1400
     43 H21       -18.5211    18.1020   -19.3478 H          1  LIG1   0.1500
     44 H22       -18.4993    16.3864   -19.8713 H          1  LIG1   0.1500
     45 H23       -14.7255    15.9592   -14.5682 H          1  LIG1   0.1300
@<TRIPOS>BOND
     1    1    2 1
     2    1   24 1
     3    1   25 1
     4    1   26 1
     5    2    3 1
     6    2    4 1
     7    2   27 1
     8    3   28 1
     9    3   29 1
    10    3   30 1
    11    4   23 ar
    12    4    5 ar
    13    5    6 ar
    14    5   31 1
    15    6    7 ar
    16    6   32 1
    17    7    8 ar
    18    7   33 1
    19    8    9 1
    20    8   23 ar
    21    9   10 am
    22    9   34 1
    23   10   11 2
    24   10   12 1
    25   12   13 1
    26   12   35 1
    27   12   36 1
    28   13   14 1
    29   13   22 1
    30   13   15 1
    31   15   16 1
    32   15   37 1
    33   15   38 1
    34   16   17 1
    35   16   39 1
    36   16   40 1
    37   17   19 1
    38   17   18 1
    39   17   22 1
    40   18   19 1
    41   18   41 1
    42   18   42 1
    43   19   20 1
    44   19   21 1
    45   22   43 1
    46   22   44 1
    47   23   45 1
##########                 Name:     ZINC000252726350
##########          Protonation:                 none
##########               SMILES:   C[N@@H+](CC(=O)NC1=CC=CC(Cl)=C1)[C@H]1CCCC[C@H]1O
##########            Long Name:   NO_LONG_NAME
##########          FlexRecCode: 1
##########               Number:                 8646
##########   Ligand Source File: /nfs/db/export/3D/CF/ADMO/CFADMO.xais.db2.gz
##########                 Rank:                    1
##########               Setnum:                  588
##########             Matchnum:                    1
##########                Cloud:                    1
##########        Electrostatic:           -50.290985
##########                 Gist:             0.000000
##########        Van der Waals:           -25.609335
##########  Ligand Polar Desolv:            14.694609
########## Ligand Apolar Desolv:            -3.188558
##########      Internal Energy:             0.000000
##########      Receptor Energy:             0.000000
########## Receptor Desolvation:             0.000000
########## Receptor Hydrophobic:             0.000000
##########         Total Energy:           -64.394272
##########        Ligand Charge:             1.000000
##########            Arbitrary:    +999.9990
##########        Ligand Energy:             0.000000

@<TRIPOS>MOLECULE
 ZINC000252726350      none
   42    43     0     0     0



@<TRIPOS>ATOM
      1 C1        -16.8770    16.9213   -18.4953 C.3        1  LIG1  -0.0600
      2 N1        -18.1722    16.6132   -17.8743 N.4        1  LIG1  -0.3700
      3 H1        -18.3211    15.6153   -17.8843 H          1  LIG1   0.4400
      4 C2        -18.1770    17.0952   -16.4867 C.3        1  LIG1  -0.0300
      5 C3        -17.0756    16.4154   -15.7150 C.2        1  LIG1   0.5000
      6 O1        -16.1966    17.0762   -15.2033 O.2        1  LIG1  -0.5000
      7 N2        -17.0672    15.0732   -15.5932 N.am       1  LIG1  -0.6500
      8 C4        -16.0445    14.4421   -14.8766 C.ar       1  LIG1   0.1300
      9 C5        -16.2920    13.2433   -14.2211 C.ar       1  LIG1  -0.1300
     10 C6        -15.2806    12.6217   -13.5147 C.ar       1  LIG1  -0.0800
     11 C7        -14.0225    13.1920   -13.4591 C.ar       1  LIG1  -0.1100
     12 C8        -13.7720    14.3873   -14.1109 C.ar       1  LIG1  -0.0200
     13 Cl1       -12.1908    15.1000   -14.0386 Cl         1  LIG1  -0.0500
     14 C9        -14.7786    15.0104   -14.8243 C.ar       1  LIG1  -0.1100
     15 C10       -19.2459    17.2759   -18.6267 C.3        1  LIG1   0.0400
     16 H2        -18.9203    18.2733   -18.9221 H          1  LIG1   0.1500
     17 C11       -19.5746    16.4559   -19.8759 C.3        1  LIG1  -0.1400
     18 C12       -20.6929    17.1462   -20.6594 C.3        1  LIG1  -0.1200
     19 C13       -21.9394    17.2565   -19.7791 C.3        1  LIG1  -0.1300
     20 C14       -21.6107    18.0765   -18.5300 C.3        1  LIG1  -0.1500
     21 C15       -20.4924    17.3862   -17.7464 C.3        1  LIG1   0.0900
     22 H3        -20.2582    17.9704   -16.8565 H          1  LIG1   0.0800
     23 O2        -20.9193    16.0786   -17.3591 O.3        1  LIG1  -0.5700
     24 H4        -16.7161    17.9993   -18.4846 H          1  LIG1   0.1200
     25 H5        -16.0804    16.4294   -17.9371 H          1  LIG1   0.1400
     26 H6        -16.8735    16.5636   -19.5250 H          1  LIG1   0.1300
     27 H7        -18.0163    18.1733   -16.4760 H          1  LIG1   0.1600
     28 H8        -19.1381    16.8666   -16.0259 H          1  LIG1   0.1600
     29 H9        -17.7702    14.5448   -16.0024 H          1  LIG1   0.4200
     30 H10       -17.2746    12.7971   -14.2632 H          1  LIG1   0.1400
     31 H11       -15.4729    11.6894   -13.0048 H          1  LIG1   0.1500
     32 H12       -13.2336    12.7043   -12.9058 H          1  LIG1   0.1400
     33 H13       -14.5831    15.9429   -15.3329 H          1  LIG1   0.1400
     34 H14       -18.6865    16.3774   -20.5030 H          1  LIG1   0.0900
     35 H15       -19.9002    15.4585   -19.5804 H          1  LIG1   0.1000
     36 H16       -20.3672    18.1437   -20.9548 H          1  LIG1   0.0700
     37 H17       -20.9270    16.5620   -21.5493 H          1  LIG1   0.0900
     38 H18       -22.7360    17.7483   -20.3373 H          1  LIG1   0.0800
     39 H19       -22.2649    16.2591   -19.4837 H          1  LIG1   0.0800
     40 H20       -21.2850    19.0739   -18.8253 H          1  LIG1   0.0800
     41 H21       -22.4987    18.1551   -17.9028 H          1  LIG1   0.0900
     42 H22       -20.2588    15.5818   -16.8572 H          1  LIG1   0.4100
@<TRIPOS>BOND
     1    1    2 1
     2    1   24 1
     3    1   25 1
     4    1   26 1
     5    2    3 1
     6    2    4 1
     7    2   15 1
     8    4    5 1
     9    4   27 1
    10    4   28 1
    11    5    6 2
    12    5    7 am
    13    7    8 1
    14    7   29 1
    15    8   14 ar
    16    8    9 ar
    17    9   10 ar
    18    9   30 1
    19   10   11 ar
    20   10   31 1
    21   11   12 ar
    22   11   32 1
    23   12   13 1
    24   12   14 ar
    25   14   33 1
    26   15   16 1
    27   15   21 1
    28   15   17 1
    29   17   18 1
    30   17   34 1
    31   17   35 1
    32   18   19 1
    33   18   36 1
    34   18   37 1
    35   19   20 1
    36   19   38 1
    37   19   39 1
    38   20   21 1
    39   20   40 1
    40   20   41 1
    41   21   22 1
    42   21   23 1
    43   23   42 1
##########                 Name:     ZINC000364631198
##########          Protonation:                 none
##########               SMILES:   O=C(C[NH+]1CCC(C2=CNN=C2)CC1)NC1=CC=CC(Cl)=C1
##########            Long Name:   NO_LONG_NAME
##########          FlexRecCode: 1
##########               Number:                 9101
##########   Ligand Source File: /nfs/db/export/3D/DF/ADMO/DFADMO.xga.db2.gz
##########                 Rank:                    1
##########               Setnum:                   64
##########             Matchnum:                    1
##########                Cloud:                    1
##########        Electrostatic:           -38.983688
##########                 Gist:             0.000000
##########        Van der Waals:           -36.317253
##########  Ligand Polar Desolv:            16.692286
########## Ligand Apolar Desolv:            -4.471140
##########      Internal Energy:             0.000000
##########      Receptor Energy:             0.000000
########## Receptor Desolvation:             0.000000
########## Receptor Hydrophobic:             0.000000
##########         Total Energy:           -63.079796
##########        Ligand Charge:             1.000000
##########            Arbitrary:    +999.9990
##########        Ligand Energy:             0.000000

@<TRIPOS>MOLECULE
 ZINC000364631198      none
   42    44     0     0     0



@<TRIPOS>ATOM
      1 O1        -16.8155    16.5169   -15.2945 O.2        1  LIG1  -0.5100
      2 C1        -16.5596    16.0898   -16.4005 C.2        1  LIG1   0.5000
      3 C2        -16.8292    16.9380   -17.6167 C.3        1  LIG1  -0.0300
      4 N1        -18.1919    16.6804   -18.1010 N.4        1  LIG1  -0.3700
      5 H1        -18.3914    15.6937   -18.0317 H          1  LIG1   0.4300
      6 C3        -18.2991    17.1024   -19.5028 C.3        1  LIG1  -0.0100
      7 C4        -19.6923    16.7620   -20.0366 C.3        1  LIG1  -0.1400
      8 C5        -20.7463    17.4927   -19.1996 C.3        1  LIG1  -0.0100
      9 C6        -22.1234    17.1011   -19.6699 C.2        1  LIG1  -0.2600
     10 C7        -22.6356    15.8487   -19.6778 C.2        1  LIG1   0.0800
     11 N2        -23.8898    15.9203   -20.1707 N.pl3      1  LIG1  -0.4700
     12 N3        -24.1571    17.2611   -20.4759 N.2        1  LIG1  -0.2800
     13 C8        -23.1001    17.9686   -20.1697 C.2        1  LIG1   0.0600
     14 C9        -20.5769    17.1017   -17.7287 C.3        1  LIG1  -0.1300
     15 C10       -19.1508    17.4309   -17.2815 C.3        1  LIG1  -0.0200
     16 N4        -16.0288    14.8590   -16.5414 N.am       1  LIG1  -0.6400
     17 C11       -15.7785    14.0716   -15.4122 C.ar       1  LIG1   0.1300
     18 C12       -16.3950    12.8349   -15.2759 C.ar       1  LIG1  -0.1100
     19 C13       -16.1459    12.0591   -14.1604 C.ar       1  LIG1  -0.0900
     20 C14       -15.2840    12.5128   -13.1793 C.ar       1  LIG1  -0.1100
     21 C15       -14.6676    13.7451   -13.3116 C.ar       1  LIG1  -0.0200
     22 Cl1       -13.5855    14.3107   -12.0775 Cl         1  LIG1  -0.0500
     23 C16       -14.9087    14.5230   -14.4282 C.ar       1  LIG1  -0.1300
     24 H2        -16.7298    17.9913   -17.3544 H          1  LIG1   0.1600
     25 H3        -16.1123    16.6892   -18.3992 H          1  LIG1   0.1600
     26 H4        -18.1371    18.1780   -19.5714 H          1  LIG1   0.1300
     27 H5        -17.5464    16.5838   -20.0965 H          1  LIG1   0.1300
     28 H6        -19.7706    17.0777   -21.0770 H          1  LIG1   0.1100
     29 H7        -19.8553    15.6864   -19.9687 H          1  LIG1   0.0900
     30 H8        -20.6162    18.5694   -19.3091 H          1  LIG1   0.0900
     31 H9        -22.1312    14.9522   -19.3485 H          1  LIG1   0.1800
     32 H10       -24.4985    15.1749   -20.2926 H          1  LIG1   0.4500
     33 H11       -22.9967    19.0369   -20.2895 H          1  LIG1   0.1800
     34 H12       -21.2874    17.6604   -17.1194 H          1  LIG1   0.1100
     35 H13       -20.7582    16.0332   -17.6130 H          1  LIG1   0.0900
     36 H14       -19.0259    17.1542   -16.2348 H          1  LIG1   0.1500
     37 H15       -18.9717    18.4997   -17.3978 H          1  LIG1   0.1300
     38 H16       -15.8204    14.5190   -17.4257 H          1  LIG1   0.4200
     39 H17       -17.0690    12.4798   -16.0415 H          1  LIG1   0.1400
     40 H18       -16.6253    11.0972   -14.0544 H          1  LIG1   0.1400
     41 H19       -15.0915    11.9047   -12.3078 H          1  LIG1   0.1400
     42 H20       -14.4277    15.4845   -14.5314 H          1  LIG1   0.1400
@<TRIPOS>BOND
     1    1    2 2
     2    2    3 1
     3    2   16 am
     4    3    4 1
     5    3   24 1
     6    3   25 1
     7    4    5 1
     8    4   15 1
     9    4    6 1
    10    6    7 1
    11    6   26 1
    12    6   27 1
    13    7    8 1
    14    7   28 1
    15    7   29 1
    16    8    9 1
    17    8   14 1
    18    8   30 1
    19    9   13 1
    20    9   10 2
    21   10   11 1
    22   10   31 1
    23   11   12 1
    24   11   32 1
    25   12   13 2
    26   13   33 1
    27   14   15 1
    28   14   34 1
    29   14   35 1
    30   15   36 1
    31   15   37 1
    32   16   17 1
    33   16   38 1
    34   17   23 ar
    35   17   18 ar
    36   18   19 ar
    37   18   39 1
    38   19   20 ar
    39   19   40 1
    40   20   21 ar
    41   20   41 1
    42   21   22 1
    43   21   23 ar
    44   23   42 1
##########                 Name:     ZINC000011872836
##########          Protonation:                 none
##########               SMILES:   OC1=CC=C(C2=CC=C(F)C=C2)C=C1C[N@@H+]1CCC[C@@H](O)C1
##########            Long Name:   NO_LONG_NAME
##########          FlexRecCode: 1
##########               Number:                  779
##########   Ligand Source File: /nfs/db/export/3D/DG/CAMO/DGCAMO.xaa.db2.gz
##########                 Rank:                    1
##########               Setnum:                   74
##########             Matchnum:                    1
##########                Cloud:                    1
##########        Electrostatic:           -41.256783
##########                 Gist:             0.000000
##########        Van der Waals:           -29.478708
##########  Ligand Polar Desolv:            11.687460
########## Ligand Apolar Desolv:            -4.144266
##########      Internal Energy:             0.000000
##########      Receptor Energy:             0.000000
########## Receptor Desolvation:             0.000000
########## Receptor Hydrophobic:             0.000000
##########         Total Energy:           -63.192295
##########        Ligand Charge:             1.000000
##########            Arbitrary:    +999.9990
##########        Ligand Energy:             0.000000

@<TRIPOS>MOLECULE
 ZINC000011872836      none
   43    45     0     0     0



@<TRIPOS>ATOM
      1 O1        -16.1753    18.7638   -18.0107 O.3        1  LIG1  -0.4900
      2 C1        -15.8751    17.6743   -17.2561 C.ar       1  LIG1   0.1200
      3 C2        -15.1207    17.8191   -16.1000 C.ar       1  LIG1  -0.1300
      4 C3        -14.8143    16.7149   -15.3321 C.ar       1  LIG1  -0.0700
      5 C4        -15.2633    15.4533   -15.7178 C.ar       1  LIG1  -0.0300
      6 C5        -14.9359    14.2639   -14.8937 C.ar       1  LIG1  -0.0800
      7 C6        -15.8060    13.1758   -14.8605 C.ar       1  LIG1  -0.0800
      8 C7        -15.4975    12.0716   -14.0926 C.ar       1  LIG1  -0.1500
      9 C8        -14.3248    12.0436   -13.3556 C.ar       1  LIG1   0.1200
     10 F1        -14.0262    10.9605   -12.6053 F          1  LIG1  -0.1300
     11 C9        -13.4570    13.1233   -13.3855 C.ar       1  LIG1  -0.1500
     12 C10       -13.7546    14.2292   -14.1550 C.ar       1  LIG1  -0.0700
     13 C11       -16.0212    15.3113   -16.8791 C.ar       1  LIG1  -0.0700
     14 C12       -16.3284    16.4194   -17.6401 C.ar       1  LIG1  -0.1800
     15 C13       -17.1477    16.2666   -18.8957 C.3        1  LIG1   0.0500
     16 N1        -18.5730    16.4115   -18.5711 N.4        1  LIG1  -0.3800
     17 H1        -18.8395    15.7006   -17.9064 H          1  LIG1   0.4200
     18 C14       -19.3698    16.2590   -19.7944 C.3        1  LIG1  -0.0100
     19 C15       -20.8589    16.3281   -19.4495 C.3        1  LIG1  -0.1400
     20 C16       -21.1656    17.6829   -18.8045 C.3        1  LIG1  -0.1700
     21 C17       -20.2753    17.8632   -17.5716 C.3        1  LIG1   0.0800
     22 H2        -20.4479    18.8486   -17.1389 H          1  LIG1   0.1000
     23 O2        -20.5876    16.8569   -16.6061 O.3        1  LIG1  -0.5700
     24 C18       -18.8080    17.7377   -17.9876 C.3        1  LIG1   0.0000
     25 H3        -16.7075    18.5655   -18.7935 H          1  LIG1   0.3900
     26 H4        -14.7730    18.7970   -15.8017 H          1  LIG1   0.1500
     27 H5        -14.2266    16.8281   -14.4331 H          1  LIG1   0.1400
     28 H6        -16.7204    13.1969   -15.4346 H          1  LIG1   0.1300
     29 H7        -16.1714    11.2280   -14.0661 H          1  LIG1   0.1400
     30 H8        -12.5438    13.0973   -12.8093 H          1  LIG1   0.1400
     31 H9        -13.0775    15.0701   -14.1783 H          1  LIG1   0.1400
     32 H10       -16.3706    14.3347   -17.1804 H          1  LIG1   0.1400
     33 H11       -16.8587    17.0341   -19.6138 H          1  LIG1   0.1400
     34 H12       -16.9716    15.2810   -19.3267 H          1  LIG1   0.1400
     35 H13       -19.1212    17.0590   -20.4916 H          1  LIG1   0.1300
     36 H14       -19.1482    15.2958   -20.2540 H          1  LIG1   0.1300
     37 H15       -21.4489    16.2165   -20.3592 H          1  LIG1   0.1100
     38 H16       -21.1087    15.5283   -18.7524 H          1  LIG1   0.0900
     39 H17       -20.9642    18.4808   -19.5192 H          1  LIG1   0.0900
     40 H18       -22.2132    17.7155   -18.5054 H          1  LIG1   0.1000
     41 H19       -20.4553    15.9530   -16.9234 H          1  LIG1   0.4100
     42 H20       -18.1706    17.8657   -17.1127 H          1  LIG1   0.1400
     43 H21       -18.5724    18.5066   -18.7233 H          1  LIG1   0.1400
@<TRIPOS>BOND
     1    1    2 1
     2    1   25 1
     3    2   14 ar
     4    2    3 ar
     5    3    4 ar
     6    3   26 1
     7    4    5 ar
     8    4   27 1
     9    5    6 1
    10    5   13 ar
    11    6   12 ar
    12    6    7 ar
    13    7    8 ar
    14    7   28 1
    15    8    9 ar
    16    8   29 1
    17    9   10 1
    18    9   11 ar
    19   11   12 ar
    20   11   30 1
    21   12   31 1
    22   13   14 ar
    23   13   32 1
    24   14   15 1
    25   15   16 1
    26   15   33 1
    27   15   34 1
    28   16   17 1
    29   16   24 1
    30   16   18 1
    31   18   19 1
    32   18   35 1
    33   18   36 1
    34   19   20 1
    35   19   37 1
    36   19   38 1
    37   20   21 1
    38   20   39 1
    39   20   40 1
    40   21   22 1
    41   21   23 1
    42   21   24 1
    43   23   41 1
    44   24   42 1
    45   24   43 1
##########                 Name:     ZINC000514714791
##########          Protonation:                 none
##########               SMILES:   O=C(NC1=CC=C2C=CNC2=N1)[C@@]1(O)CC[N@@H+](CC2=CC=CC=C2)C1
##########            Long Name:   NO_LONG_NAME
##########          FlexRecCode: 1
##########               Number:                13810
##########   Ligand Source File: /nfs/db/export/3D/EE/ADMO/EEADMO.xbwd.db2.gz
##########                 Rank:                    1
##########               Setnum:                   52
##########             Matchnum:                    1
##########                Cloud:                    1
##########        Electrostatic:           -44.598644
##########                 Gist:             0.000000
##########        Van der Waals:           -36.433849
##########  Ligand Polar Desolv:            16.511086
########## Ligand Apolar Desolv:            -3.746065
##########      Internal Energy:             0.000000
##########      Receptor Energy:             0.000000
########## Receptor Desolvation:             0.000000
########## Receptor Hydrophobic:             0.000000
##########         Total Energy:           -68.267471
##########        Ligand Charge:             1.000000
##########            Arbitrary:    +999.9990
##########        Ligand Energy:             0.000000

@<TRIPOS>MOLECULE
 ZINC000514714791      none
   46    49     0     0     0



@<TRIPOS>ATOM
      1 O1        -16.0519    19.3966   -17.4828 O.2        1  LIG1  -0.4500
      2 C1        -15.8924    18.4079   -16.7987 C.2        1  LIG1   0.4900
      3 N1        -14.7803    18.2797   -16.0484 N.am       1  LIG1  -0.6400
      4 C2        -13.8129    19.2837   -16.0587 C.ar       1  LIG1   0.3800
      5 C3        -13.6444    20.0565   -17.2064 C.ar       1  LIG1  -0.2200
      6 C4        -12.6955    21.0444   -17.2211 C.ar       1  LIG1   0.0000
      7 C5        -11.9257    21.2396   -16.0705 C.ar       1  LIG1  -0.1700
      8 C6        -10.8481    22.1623   -15.7073 C.2        1  LIG1  -0.1900
      9 C7        -10.4936    21.8701   -14.4464 C.2        1  LIG1   0.0600
     10 N2        -11.2581    20.8351   -13.9753 N.pl3      1  LIG1  -0.5800
     11 C8        -12.1435    20.4263   -14.9428 C.ar       1  LIG1   0.3100
     12 N3        -13.0795    19.4856   -14.9786 N.ar       1  LIG1  -0.4900
     13 C9        -16.9410    17.3256   -16.7827 C.3        1  LIG1   0.1000
     14 O2        -16.5671    16.2870   -15.8753 O.3        1  LIG1  -0.5300
     15 C10       -18.3123    17.9139   -16.3916 C.3        1  LIG1  -0.1700
     16 C11       -19.2253    17.6459   -17.6072 C.3        1  LIG1   0.0000
     17 N4        -18.5999    16.4885   -18.2972 N.4        1  LIG1  -0.3900
     18 H1        -18.8347    15.6277   -17.8260 H          1  LIG1   0.4300
     19 C12       -19.0245    16.4373   -19.7025 C.3        1  LIG1   0.0500
     20 C13       -20.4872    16.7872   -19.7984 C.ar       1  LIG1  -0.1600
     21 C14       -21.4431    15.7927   -19.7085 C.ar       1  LIG1  -0.0900
     22 C15       -22.7848    16.1138   -19.7964 C.ar       1  LIG1  -0.1100
     23 C16       -23.1706    17.4292   -19.9737 C.ar       1  LIG1  -0.0800
     24 C17       -22.2147    18.4239   -20.0627 C.ar       1  LIG1  -0.1100
     25 C18       -20.8732    18.1034   -19.9705 C.ar       1  LIG1  -0.1000
     26 C19       -17.1408    16.7517   -18.2018 C.3        1  LIG1   0.0200
     27 H2        -14.6527    17.4889   -15.5014 H          1  LIG1   0.4200
     28 H3        -14.2570    19.8775   -18.0777 H          1  LIG1   0.1400
     29 H4        -12.5459    21.6562   -18.0984 H          1  LIG1   0.1500
     30 H5        -10.4203    22.9306   -16.3344 H          1  LIG1   0.1600
     31 H6         -9.7204    22.3751   -13.8864 H          1  LIG1   0.1800
     32 H7        -11.1847    20.4479   -13.0890 H          1  LIG1   0.4200
     33 H8        -17.2050    15.5620   -15.8230 H          1  LIG1   0.4000
     34 H9        -18.7020    17.4101   -15.5070 H          1  LIG1   0.1200
     35 H10       -18.2270    18.9854   -16.2111 H          1  LIG1   0.1200
     36 H11       -20.2330    17.3927   -17.2773 H          1  LIG1   0.1400
     37 H12       -19.2469    18.5145   -18.2653 H          1  LIG1   0.1400
     38 H13       -18.4413    17.1509   -20.2846 H          1  LIG1   0.1400
     39 H14       -18.8649    15.4326   -20.0940 H          1  LIG1   0.1400
     40 H15       -21.1417    14.7649   -19.5699 H          1  LIG1   0.1300
     41 H16       -23.5316    15.3367   -19.7269 H          1  LIG1   0.1400
     42 H17       -24.2188    17.6799   -20.0431 H          1  LIG1   0.1400
     43 H18       -22.5160    19.4516   -20.2016 H          1  LIG1   0.1400
     44 H19       -20.1263    18.8805   -20.0401 H          1  LIG1   0.1300
     45 H20       -16.8361    17.4804   -18.9531 H          1  LIG1   0.1600
     46 H21       -16.5789    15.8252   -18.3199 H          1  LIG1   0.1500
@<TRIPOS>BOND
     1    1    2 2
     2    2    3 am
     3    2   13 1
     4    3    4 1
     5    3   27 1
     6    4   12 ar
     7    4    5 ar
     8    5    6 ar
     9    5   28 1
    10    6    7 ar
    11    6   29 1
    12    7   11 ar
    13    7    8 1
    14    8    9 2
    15    8   30 1
    16    9   10 1
    17    9   31 1
    18   10   11 1
    19   10   32 1
    20   11   12 ar
    21   13   26 1
    22   13   14 1
    23   13   15 1
    24   14   33 1
    25   15   16 1
    26   15   34 1
    27   15   35 1
    28   16   17 1
    29   16   36 1
    30   16   37 1
    31   17   18 1
    32   17   19 1
    33   17   26 1
    34   19   20 1
    35   19   38 1
    36   19   39 1
    37   20   25 ar
    38   20   21 ar
    39   21   22 ar
    40   21   40 1
    41   22   23 ar
    42   22   41 1
    43   23   24 ar
    44   23   42 1
    45   24   25 ar
    46   24   43 1
    47   25   44 1
    48   26   45 1
    49   26   46 1
##########                 Name:     ZINC000158232752
##########          Protonation:                 none
##########               SMILES:   C[C@@H]([NH2+]C[C@@]1(O)CCSC1)C1=CC=C(N2C=NC=N2)C=C1Cl
##########            Long Name:   NO_LONG_NAME
##########          FlexRecCode: 1
##########               Number:                10325
##########   Ligand Source File: /nfs/db/export/3D/EE/ADRO/EEADRO.xawv.db2.gz
##########                 Rank:                    1
##########               Setnum:                   33
##########             Matchnum:                    1
##########                Cloud:                    1
##########        Electrostatic:           -42.699760
##########                 Gist:             0.000000
##########        Van der Waals:           -29.548710
##########  Ligand Polar Desolv:            14.262973
########## Ligand Apolar Desolv:            -5.097169
##########      Internal Energy:             0.000000
##########      Receptor Energy:             0.000000
########## Receptor Desolvation:             0.000000
########## Receptor Hydrophobic:             0.000000
##########         Total Energy:           -63.082672
##########        Ligand Charge:             1.000000
##########            Arbitrary:    +999.9990
##########        Ligand Energy:             0.000000

@<TRIPOS>MOLECULE
 ZINC000158232752      none
   42    44     0     0     0



@<TRIPOS>ATOM
      1 C1        -15.8459    17.3513   -18.9962 C.3        1  LIG1  -0.1800
      2 C2        -16.6258    17.3394   -17.6799 C.3        1  LIG1   0.0800
      3 H1        -16.7350    18.3600   -17.3131 H          1  LIG1   0.1500
      4 N1        -17.9546    16.7545   -17.9035 N.4        1  LIG1  -0.5100
      5 H2        -17.8751    15.9690   -18.5316 H          1  LIG1   0.4200
      6 H3        -18.3377    16.4438   -17.0232 H          1  LIG1   0.4400
      7 C3        -18.8418    17.7658   -18.4938 C.3        1  LIG1   0.0100
      8 C4        -20.2258    17.1565   -18.7266 C.3        1  LIG1   0.1100
      9 O1        -20.5753    16.3231   -17.6197 O.3        1  LIG1  -0.5500
     10 C5        -21.2669    18.2802   -18.8712 C.3        1  LIG1  -0.1500
     11 C6        -22.5610    17.6275   -19.4243 C.3        1  LIG1  -0.0900
     12 S1        -21.9041    16.4837   -20.6994 S.3        1  LIG1  -0.2300
     13 C7        -20.2113    16.3182   -20.0218 C.3        1  LIG1  -0.1500
     14 C8        -15.8797    16.5168   -16.6613 C.ar       1  LIG1  -0.1400
     15 C9        -16.1282    15.1612   -16.5534 C.ar       1  LIG1  -0.0900
     16 C10       -15.4460    14.4043   -15.6206 C.ar       1  LIG1  -0.1000
     17 C11       -14.5093    15.0056   -14.7909 C.ar       1  LIG1   0.2100
     18 N2        -13.8154    14.2394   -13.8440 N.pl3      1  LIG1  -0.3500
     19 C12       -14.2594    13.1314   -13.2192 C.2        1  LIG1   0.2700
     20 N3        -13.3157    12.7146   -12.4142 N.2        1  LIG1  -0.5200
     21 C13       -12.2609    13.5248   -12.4960 C.2        1  LIG1   0.2300
     22 N4        -12.5166    14.4703   -13.3622 N.2        1  LIG1  -0.3100
     23 C14       -14.2607    16.3671   -14.9011 C.ar       1  LIG1  -0.1200
     24 C15       -14.9427    17.1187   -15.8394 C.ar       1  LIG1   0.0200
     25 Cl1       -14.6331    18.8213   -15.9784 Cl         1  LIG1  -0.0200
     26 H4        -15.7367    16.3306   -19.3631 H          1  LIG1   0.0900
     27 H5        -16.3854    17.9464   -19.7328 H          1  LIG1   0.0900
     28 H6        -14.8599    17.7851   -18.8303 H          1  LIG1   0.1100
     29 H7        -18.9279    18.6143   -17.8150 H          1  LIG1   0.1500
     30 H8        -18.4279    18.1015   -19.4446 H          1  LIG1   0.1500
     31 H9        -19.9634    15.5893   -17.4712 H          1  LIG1   0.4100
     32 H10       -21.4640    18.7324   -17.8993 H          1  LIG1   0.1100
     33 H11       -20.9043    19.0363   -19.5675 H          1  LIG1   0.1000
     34 H12       -23.0833    17.0773   -18.6416 H          1  LIG1   0.1000
     35 H13       -23.2122    18.3772   -19.8738 H          1  LIG1   0.1200
     36 H14       -19.4799    16.7174   -20.7244 H          1  LIG1   0.1100
     37 H15       -19.9926    15.2745   -19.7963 H          1  LIG1   0.1200
     38 H16       -16.8569    14.6933   -17.1988 H          1  LIG1   0.1400
     39 H17       -15.6414    13.3454   -15.5366 H          1  LIG1   0.1600
     40 H18       -15.2249    12.6682   -13.3584 H          1  LIG1   0.2300
     41 H19       -11.3417    13.4159   -11.9396 H          1  LIG1   0.2300
     42 H20       -13.5326    16.8375   -14.2570 H          1  LIG1   0.1600
@<TRIPOS>BOND
     1    1    2 1
     2    1   26 1
     3    1   27 1
     4    1   28 1
     5    2    3 1
     6    2    4 1
     7    2   14 1
     8    4    5 1
     9    4    6 1
    10    4    7 1
    11    7    8 1
    12    7   29 1
    13    7   30 1
    14    8   13 1
    15    8    9 1
    16    8   10 1
    17    9   31 1
    18   10   11 1
    19   10   32 1
    20   10   33 1
    21   11   12 1
    22   11   34 1
    23   11   35 1
    24   12   13 1
    25   13   36 1
    26   13   37 1
    27   14   24 ar
    28   14   15 ar
    29   15   16 ar
    30   15   38 1
    31   16   17 ar
    32   16   39 1
    33   17   18 1
    34   17   23 ar
    35   18   22 1
    36   18   19 1
    37   19   20 2
    38   19   40 1
    39   20   21 1
    40   21   22 2
    41   21   41 1
    42   23   24 ar
    43   23   42 1
    44   24   25 1
##########                 Name:     ZINC000581662500
##########          Protonation:                 none
##########               SMILES:   CC1=CC=C(C)C(OC[C@H](O)C[NH2+]CC2=CC=C(C)N(C)C2=O)=C1C
##########            Long Name:   NO_LONG_NAME
##########          FlexRecCode: 1
##########               Number:                 5275
##########   Ligand Source File: /nfs/db/export/3D/EE/ADRO/EEADRO.xbfb.db2.gz
##########                 Rank:                    1
##########               Setnum:                  216
##########             Matchnum:                    1
##########                Cloud:                    1
##########        Electrostatic:           -54.883553
##########                 Gist:             0.000000
##########        Van der Waals:           -30.652805
##########  Ligand Polar Desolv:            20.826221
########## Ligand Apolar Desolv:            -3.442962
##########      Internal Energy:             0.000000
##########      Receptor Energy:             0.000000
########## Receptor Desolvation:             0.000000
########## Receptor Hydrophobic:             0.000000
##########         Total Energy:           -68.153107
##########        Ligand Charge:             1.000000
##########            Arbitrary:    +999.9990
##########        Ligand Energy:             0.000000

@<TRIPOS>MOLECULE
 ZINC000581662500      none
   54    55     0     0     0



@<TRIPOS>ATOM
      1 C1        -15.3852    21.4691   -22.8224 C.3        1  LIG1  -0.1200
      2 C2        -16.7028    20.7934   -22.5419 C.ar       1  LIG1  -0.0800
      3 C3        -17.8280    21.1480   -23.2625 C.ar       1  LIG1  -0.1100
      4 C4        -19.0384    20.5298   -23.0075 C.ar       1  LIG1  -0.1100
      5 C5        -19.1259    19.5562   -22.0319 C.ar       1  LIG1  -0.1000
      6 C6        -20.4452    18.8825   -21.7548 C.3        1  LIG1  -0.1100
      7 C7        -17.9980    19.1985   -21.3071 C.ar       1  LIG1   0.0800
      8 O1        -18.0814    18.2405   -20.3469 O.3        1  LIG1  -0.3100
      9 C8        -17.8477    16.8910   -20.7546 C.3        1  LIG1   0.0300
     10 C9        -17.9838    15.9622   -19.5464 C.3        1  LIG1   0.0900
     11 H1        -17.8055    14.9329   -19.8575 H          1  LIG1   0.1300
     12 O2        -19.3014    16.0748   -19.0051 O.3        1  LIG1  -0.5400
     13 C10       -16.9593    16.3578   -18.4811 C.3        1  LIG1  -0.0400
     14 N1        -16.7474    15.2307   -17.5631 N.4        1  LIG1  -0.5000
     15 H2        -17.6206    14.9911   -17.1176 H          1  LIG1   0.4400
     16 H3        -16.4046    14.4353   -18.0805 H          1  LIG1   0.4200
     17 C11       -15.7639    15.6105   -16.5402 C.3        1  LIG1   0.0800
     18 C12       -15.5465    14.4543   -15.5984 C.2        1  LIG1  -0.3300
     19 C13       -16.2188    13.2816   -15.7803 C.2        1  LIG1   0.0600
     20 C14       -15.9990    12.2205   -14.8908 C.2        1  LIG1  -0.2500
     21 C15       -15.1272    12.3676   -13.8658 C.2        1  LIG1   0.2200
     22 C16       -14.8956    11.2224   -12.9140 C.3        1  LIG1  -0.1400
     23 N2        -14.4590    13.5356   -13.6864 N.am       1  LIG1  -0.4900
     24 C17       -13.5208    13.6690   -12.5692 C.3        1  LIG1   0.0500
     25 C18       -14.6446    14.5711   -14.5270 C.2        1  LIG1   0.5300
     26 O3        -14.0361    15.6149   -14.3528 O.2        1  LIG1  -0.5500
     27 C19       -16.7838    19.8160   -21.5687 C.ar       1  LIG1  -0.1000
     28 C20       -15.5567    19.4300   -20.7835 C.3        1  LIG1  -0.1200
     29 H4        -15.5161    22.2055   -23.6153 H          1  LIG1   0.0700
     30 H5        -15.0325    21.9669   -21.9189 H          1  LIG1   0.0700
     31 H6        -14.6540    20.7239   -23.1356 H          1  LIG1   0.0700
     32 H7        -17.7616    21.9094   -24.0256 H          1  LIG1   0.1300
     33 H8        -19.9160    20.8088   -23.5716 H          1  LIG1   0.1300
     34 H9        -20.3186    18.1489   -20.9587 H          1  LIG1   0.0700
     35 H10       -21.1771    19.6295   -21.4474 H          1  LIG1   0.0700
     36 H11       -20.7943    18.3821   -22.6579 H          1  LIG1   0.0700
     37 H12       -18.5772    16.6092   -21.5137 H          1  LIG1   0.0700
     38 H13       -16.8424    16.8052   -21.1674 H          1  LIG1   0.0700
     39 H14       -19.4595    15.5125   -18.2344 H          1  LIG1   0.3900
     40 H15       -16.0161    16.6166   -18.9623 H          1  LIG1   0.1500
     41 H16       -17.3298    17.2170   -17.9221 H          1  LIG1   0.1400
     42 H17       -14.8208    15.8694   -17.0214 H          1  LIG1   0.1400
     43 H18       -16.1343    16.4698   -15.9812 H          1  LIG1   0.1400
     44 H19       -16.9131    13.1716   -16.6001 H          1  LIG1   0.1500
     45 H20       -16.5250    11.2865   -15.0230 H          1  LIG1   0.1600
     46 H21       -14.1681    11.5192   -12.1586 H          1  LIG1   0.1000
     47 H22       -15.8352    10.9572   -12.4292 H          1  LIG1   0.1000
     48 H23       -14.5161    10.3625   -13.4659 H          1  LIG1   0.1000
     49 H24       -13.0805    14.6660   -12.5814 H          1  LIG1   0.0900
     50 H25       -14.0514    13.5177   -11.6291 H          1  LIG1   0.1000
     51 H26       -12.7325    12.9224   -12.6656 H          1  LIG1   0.1000
     52 H27       -15.8143    18.6495   -20.0676 H          1  LIG1   0.0700
     53 H28       -14.7908    19.0598   -21.4649 H          1  LIG1   0.0800
     54 H29       -15.1777    20.3017   -20.2500 H          1  LIG1   0.0700
@<TRIPOS>BOND
     1    1    2 1
     2    1   29 1
     3    1   30 1
     4    1   31 1
     5    2   27 ar
     6    2    3 ar
     7    3    4 ar
     8    3   32 1
     9    4    5 ar
    10    4   33 1
    11    5    6 1
    12    5    7 ar
    13    6   34 1
    14    6   35 1
    15    6   36 1
    16    7    8 1
    17    7   27 ar
    18    8    9 1
    19    9   10 1
    20    9   37 1
    21    9   38 1
    22   10   11 1
    23   10   12 1
    24   10   13 1
    25   12   39 1
    26   13   14 1
    27   13   40 1
    28   13   41 1
    29   14   15 1
    30   14   16 1
    31   14   17 1
    32   17   18 1
    33   17   42 1
    34   17   43 1
    35   18   25 1
    36   18   19 2
    37   19   20 1
    38   19   44 1
    39   20   21 2
    40   20   45 1
    41   21   22 1
    42   21   23 1
    43   22   46 1
    44   22   47 1
    45   22   48 1
    46   23   24 1
    47   23   25 am
    48   24   49 1
    49   24   50 1
    50   24   51 1
    51   25   26 2
    52   27   28 1
    53   28   52 1
    54   28   53 1
    55   28   54 1
##########                 Name:     ZINC000635244988
##########          Protonation:                 none
##########               SMILES:   O=C(NCC1=CC=C(Cl)S1)[C@H]1CC[N@@H+]1C1CCCC1
##########            Long Name:   NO_LONG_NAME
##########          FlexRecCode: 1
##########               Number:                 9946
##########   Ligand Source File: /nfs/db/export/3D/CG/ADMO/CGADMO.xaui.db2.gz
##########                 Rank:                    1
##########               Setnum:                  111
##########             Matchnum:                    1
##########                Cloud:                    1
##########        Electrostatic:           -44.699627
##########                 Gist:             0.000000
##########        Van der Waals:           -25.345646
##########  Ligand Polar Desolv:            12.428402
########## Ligand Apolar Desolv:            -4.906412
##########      Internal Energy:             0.000000
##########      Receptor Energy:             0.000000
########## Receptor Desolvation:             0.000000
########## Receptor Hydrophobic:             0.000000
##########         Total Energy:           -62.523281
##########        Ligand Charge:             1.000000
##########            Arbitrary:    +999.9990
##########        Ligand Energy:             0.000000

@<TRIPOS>MOLECULE
 ZINC000635244988      none
   39    41     0     0     0



@<TRIPOS>ATOM
      1 O1        -16.7913    18.1848   -16.2881 O.2        1  LIG1  -0.5200
      2 C1        -16.9215    17.1547   -16.9149 C.2        1  LIG1   0.5100
      3 N1        -16.6602    15.9706   -16.3266 N.am       1  LIG1  -0.7000
      4 C2        -16.2189    15.9277   -14.9303 C.3        1  LIG1   0.2000
      5 C3        -15.9966    14.4957   -14.5174 C.2        1  LIG1  -0.2300
      6 C4        -16.8203    13.4818   -14.7856 C.2        1  LIG1  -0.0900
      7 C5        -16.4071    12.2509   -14.3041 C.2        1  LIG1  -0.1300
      8 C6        -15.2466    12.2666   -13.6446 C.2        1  LIG1  -0.1300
      9 Cl1       -14.4813    10.8807   -12.9324 Cl         1  LIG1   0.0100
     10 S1        -14.6075    13.9050   -13.6146 S.3        1  LIG1   0.1800
     11 C7        -17.3816    17.1982   -18.3493 C.3        1  LIG1   0.0100
     12 H1        -17.5628    18.2132   -18.7030 H          1  LIG1   0.1800
     13 C8        -16.5064    16.3671   -19.2978 C.3        1  LIG1  -0.1500
     14 C9        -17.8510    16.0065   -19.9445 C.3        1  LIG1   0.0000
     15 N2        -18.4889    16.2684   -18.6395 N.4        1  LIG1  -0.3900
     16 H2        -18.5054    15.4629   -18.0322 H          1  LIG1   0.4400
     17 C10       -19.7963    16.9289   -18.7505 C.3        1  LIG1   0.0200
     18 C11       -20.8286    15.9806   -19.4093 C.3        1  LIG1  -0.1400
     19 C12       -22.1806    16.5441   -18.9056 C.3        1  LIG1  -0.1200
     20 C13       -21.8960    16.9648   -17.4490 C.3        1  LIG1  -0.1300
     21 C14       -20.3800    17.2095   -17.3503 C.3        1  LIG1  -0.1500
     22 H3        -16.7642    15.1466   -16.8278 H          1  LIG1   0.4100
     23 H4        -15.2877    16.4846   -14.8264 H          1  LIG1   0.1000
     24 H5        -16.9826    16.3750   -14.2941 H          1  LIG1   0.0900
     25 H6        -17.7404    13.6110   -15.3362 H          1  LIG1   0.1500
     26 H7        -16.9801    11.3474   -14.4508 H          1  LIG1   0.1600
     27 H8        -15.8500    16.9605   -19.9342 H          1  LIG1   0.1400
     28 H9        -16.0020    15.5278   -18.8191 H          1  LIG1   0.1300
     29 H10       -18.1584    16.7030   -20.7246 H          1  LIG1   0.1600
     30 H11       -17.9161    14.9648   -20.2590 H          1  LIG1   0.1400
     31 H12       -19.7080    17.8545   -19.3194 H          1  LIG1   0.1400
     32 H13       -20.7671    16.0378   -20.4961 H          1  LIG1   0.0900
     33 H14       -20.6855    14.9558   -19.0666 H          1  LIG1   0.0900
     34 H15       -22.4795    17.4072   -19.5005 H          1  LIG1   0.0800
     35 H16       -22.9505    15.7731   -18.9365 H          1  LIG1   0.0900
     36 H17       -22.4381    17.8802   -17.2120 H          1  LIG1   0.0800
     37 H18       -22.1908    16.1683   -16.7659 H          1  LIG1   0.0800
     38 H19       -19.9391    16.5317   -16.6194 H          1  LIG1   0.0900
     39 H20       -20.1864    18.2437   -17.0655 H          1  LIG1   0.0900
@<TRIPOS>BOND
     1    1    2 2
     2    2    3 am
     3    2   11 1
     4    3    4 1
     5    3   22 1
     6    4    5 1
     7    4   23 1
     8    4   24 1
     9    5   10 1
    10    5    6 2
    11    6    7 1
    12    6   25 1
    13    7    8 2
    14    7   26 1
    15    8    9 1
    16    8   10 1
    17   11   12 1
    18   11   15 1
    19   11   13 1
    20   13   14 1
    21   13   27 1
    22   13   28 1
    23   14   15 1
    24   14   29 1
    25   14   30 1
    26   15   16 1
    27   15   17 1
    28   17   21 1
    29   17   18 1
    30   17   31 1
    31   18   19 1
    32   18   32 1
    33   18   33 1
    34   19   20 1
    35   19   34 1
    36   19   35 1
    37   20   21 1
    38   20   36 1
    39   20   37 1
    40   21   38 1
    41   21   39 1
##########                 Name:     ZINC000602837761
##########          Protonation:                 none
##########               SMILES:   CS[C@H]1CC[N@@H+]([C@H](C)C(=O)N[C@H](C)C2=CC=CC=C2)C1
##########            Long Name:   NO_LONG_NAME
##########          FlexRecCode: 1
##########               Number:                 5157
##########   Ligand Source File: /nfs/db/export/3D/CF/ADRO/CFADRO.xadw.db2.gz
##########                 Rank:                    1
##########               Setnum:                   78
##########             Matchnum:                    1
##########                Cloud:                    1
##########        Electrostatic:           -42.282795
##########                 Gist:             0.000000
##########        Van der Waals:           -29.089725
##########  Ligand Polar Desolv:            12.952318
########## Ligand Apolar Desolv:            -5.417712
##########      Internal Energy:             0.000000
##########      Receptor Energy:             0.000000
########## Receptor Desolvation:             0.000000
########## Receptor Hydrophobic:             0.000000
##########         Total Energy:           -63.837914
##########        Ligand Charge:             1.000000
##########            Arbitrary:    +999.9990
##########        Ligand Energy:             0.000000

@<TRIPOS>MOLECULE
 ZINC000602837761      none
   45    46     0     0     0



@<TRIPOS>ATOM
      1 C1        -23.1313    17.3822   -19.7418 C.3        1  LIG1  -0.1300
      2 S1        -21.8122    17.9815   -18.6504 S.3        1  LIG1  -0.1900
      3 C2        -20.5544    16.6808   -18.7780 C.3        1  LIG1  -0.1000
      4 H1        -20.9568    15.7232   -18.4478 H          1  LIG1   0.1200
      5 C3        -20.0174    16.5790   -20.2242 C.3        1  LIG1  -0.1400
      6 C4        -18.5037    16.3374   -20.0751 C.3        1  LIG1   0.0000
      7 N1        -18.2149    16.2759   -18.6259 N.4        1  LIG1  -0.3800
      8 H2        -18.2351    15.3187   -18.3074 H          1  LIG1   0.4300
      9 C5        -16.9041    16.8764   -18.3447 C.3        1  LIG1   0.0100
     10 H3        -16.9057    17.9184   -18.6645 H          1  LIG1   0.1600
     11 C6        -15.8189    16.1112   -19.1049 C.3        1  LIG1  -0.1800
     12 C7        -16.6259    16.8053   -16.8653 C.2        1  LIG1   0.5100
     13 O1        -16.9711    17.7132   -16.1391 O.2        1  LIG1  -0.5200
     14 N2        -15.9936    15.7328   -16.3494 N.am       1  LIG1  -0.7000
     15 C8        -15.7231    15.6637   -14.9111 C.3        1  LIG1   0.1900
     16 H4        -16.5152    16.1784   -14.3673 H          1  LIG1   0.1000
     17 C9        -14.3806    16.3335   -14.6119 C.3        1  LIG1  -0.1600
     18 C10       -15.6723    14.2211   -14.4784 C.ar       1  LIG1  -0.1100
     19 C11       -14.8746    13.8466   -13.4133 C.ar       1  LIG1  -0.1200
     20 C12       -14.8280    12.5233   -13.0162 C.ar       1  LIG1  -0.1100
     21 C13       -15.5793    11.5745   -13.6841 C.ar       1  LIG1  -0.1100
     22 C14       -16.3776    11.9490   -14.7487 C.ar       1  LIG1  -0.1100
     23 C15       -16.4276    13.2730   -15.1430 C.ar       1  LIG1  -0.1000
     24 C16       -19.2925    17.0562   -17.9610 C.3        1  LIG1   0.0200
     25 H5        -23.9543    18.0969   -19.7434 H          1  LIG1   0.0800
     26 H6        -22.7433    17.2725   -20.7544 H          1  LIG1   0.0900
     27 H7        -23.4890    16.4169   -19.3833 H          1  LIG1   0.1200
     28 H8        -20.4847    15.7423   -20.7433 H          1  LIG1   0.1100
     29 H9        -20.2008    17.5091   -20.7621 H          1  LIG1   0.1200
     30 H10       -18.2299    15.3947   -20.5487 H          1  LIG1   0.1400
     31 H11       -17.9501    17.1590   -20.5296 H          1  LIG1   0.1400
     32 H12       -14.8464    16.5568   -18.8964 H          1  LIG1   0.1100
     33 H13       -15.8174    15.0692   -18.7852 H          1  LIG1   0.0900
     34 H14       -16.0203    16.1627   -20.1751 H          1  LIG1   0.1000
     35 H15       -15.7175    15.0066   -16.9301 H          1  LIG1   0.4100
     36 H16       -14.1793    16.2822   -13.5418 H          1  LIG1   0.0700
     37 H17       -13.5884    15.8188   -15.1557 H          1  LIG1   0.0800
     38 H18       -14.4174    17.3769   -14.9249 H          1  LIG1   0.0600
     39 H19       -14.2876    14.5879   -12.8914 H          1  LIG1   0.1200
     40 H20       -14.2043    12.2308   -12.1846 H          1  LIG1   0.1300
     41 H21       -15.5423    10.5405   -13.3745 H          1  LIG1   0.1300
     42 H22       -16.9645    11.2076   -15.2708 H          1  LIG1   0.1300
     43 H23       -17.0513    13.5657   -15.9747 H          1  LIG1   0.1300
     44 H24       -19.0945    18.1256   -18.0342 H          1  LIG1   0.1400
     45 H25       -19.3994    16.7542   -16.9191 H          1  LIG1   0.1600
@<TRIPOS>BOND
     1    1    2 1
     2    1   25 1
     3    1   26 1
     4    1   27 1
     5    2    3 1
     6    3    4 1
     7    3   24 1
     8    3    5 1
     9    5    6 1
    10    5   28 1
    11    5   29 1
    12    6    7 1
    13    6   30 1
    14    6   31 1
    15    7    8 1
    16    7    9 1
    17    7   24 1
    18    9   10 1
    19    9   11 1
    20    9   12 1
    21   11   32 1
    22   11   33 1
    23   11   34 1
    24   12   13 2
    25   12   14 am
    26   14   15 1
    27   14   35 1
    28   15   16 1
    29   15   17 1
    30   15   18 1
    31   17   36 1
    32   17   37 1
    33   17   38 1
    34   18   23 ar
    35   18   19 ar
    36   19   20 ar
    37   19   39 1
    38   20   21 ar
    39   20   40 1
    40   21   22 ar
    41   21   41 1
    42   22   23 ar
    43   22   42 1
    44   23   43 1
    45   24   44 1
    46   24   45 1
##########                 Name:     ZINC000112600553
##########          Protonation:                 none
##########               SMILES:   O=C(C[N@H+]1CCCC[C@H]1CCO)NCC1=CC=C(F)C=C1C(F)(F)F
##########            Long Name:   NO_LONG_NAME
##########          FlexRecCode: 1
##########               Number:                 2554
##########   Ligand Source File: /nfs/db/export/3D/FF/ADRO/FFADRO.xany.db2.gz
##########                 Rank:                    1
##########               Setnum:                   30
##########             Matchnum:                    1
##########                Cloud:                    1
##########        Electrostatic:           -41.455505
##########                 Gist:             0.000000
##########        Van der Waals:           -30.051651
##########  Ligand Polar Desolv:            10.909992
########## Ligand Apolar Desolv:            -4.182389
##########      Internal Energy:             0.000000
##########      Receptor Energy:             0.000000
########## Receptor Desolvation:             0.000000
########## Receptor Hydrophobic:             0.000000
##########         Total Energy:           -64.779556
##########        Ligand Charge:             1.000000
##########            Arbitrary:    +999.9990
##########        Ligand Energy:             0.000000

@<TRIPOS>MOLECULE
 ZINC000112600553      none
   48    49     0     0     0



@<TRIPOS>ATOM
      1 O1        -16.8475    18.2225   -15.9400 O.2        1  LIG1  -0.5200
      2 C1        -16.7023    17.5353   -16.9288 C.2        1  LIG1   0.5100
      3 C2        -17.5077    17.8210   -18.1700 C.3        1  LIG1  -0.0400
      4 N1        -18.7629    17.0592   -18.1253 N.4        1  LIG1  -0.3600
      5 H1        -18.5830    16.1378   -17.7553 H          1  LIG1   0.4300
      6 C3        -19.7242    17.7531   -17.2600 C.3        1  LIG1  -0.0200
      7 C4        -21.0046    16.9232   -17.1451 C.3        1  LIG1  -0.1400
      8 C5        -21.6120    16.7363   -18.5385 C.3        1  LIG1  -0.1400
      9 C6        -20.5742    16.0788   -19.4529 C.3        1  LIG1  -0.1400
     10 C7        -19.3107    16.9416   -19.4820 C.3        1  LIG1   0.0300
     11 H2        -18.5692    16.4774   -20.1321 H          1  LIG1   0.1400
     12 C8        -19.6563    18.3331   -20.0159 C.3        1  LIG1  -0.1500
     13 C9        -19.7451    18.2862   -21.5426 C.3        1  LIG1   0.0800
     14 O2        -18.4889    17.8683   -22.0803 O.3        1  LIG1  -0.5700
     15 N2        -15.8164    16.5196   -16.9193 N.am       1  LIG1  -0.7000
     16 C10       -15.0290    16.2456   -15.7146 C.3        1  LIG1   0.1400
     17 C11       -15.3188    14.8477   -15.2322 C.ar       1  LIG1  -0.0900
     18 C12       -16.2114    14.0499   -15.9232 C.ar       1  LIG1  -0.0700
     19 C13       -16.4777    12.7673   -15.4820 C.ar       1  LIG1  -0.1200
     20 C14       -15.8500    12.2819   -14.3474 C.ar       1  LIG1   0.1200
     21 F1        -16.1092    11.0283   -13.9155 F          1  LIG1  -0.1200
     22 C15       -14.9561    13.0821   -13.6560 C.ar       1  LIG1  -0.1100
     23 C16       -14.6875    14.3621   -14.1020 C.ar       1  LIG1  -0.1400
     24 C17       -13.7146    15.2331   -13.3498 C.3        1  LIG1   0.5100
     25 F2        -13.6176    16.4775   -13.9818 F          1  LIG1  -0.1700
     26 F3        -14.1659    15.4106   -12.0375 F          1  LIG1  -0.1800
     27 F4        -12.4573    14.6199   -13.3316 F          1  LIG1  -0.1700
     28 H3        -17.7310    18.8866   -18.2209 H          1  LIG1   0.1600
     29 H4        -16.9355    17.5272   -19.0500 H          1  LIG1   0.1600
     30 H5        -19.2892    17.8883   -16.2697 H          1  LIG1   0.1500
     31 H6        -19.9604    18.7273   -17.6881 H          1  LIG1   0.1300
     32 H7        -20.7695    15.9489   -16.7168 H          1  LIG1   0.0900
     33 H8        -21.7176    17.4410   -16.5037 H          1  LIG1   0.1100
     34 H9        -22.4931    16.0985   -18.4694 H          1  LIG1   0.1000
     35 H10       -21.8943    17.7069   -18.9462 H          1  LIG1   0.0800
     36 H11       -20.3302    15.0870   -19.0724 H          1  LIG1   0.0900
     37 H12       -20.9797    15.9932   -20.4610 H          1  LIG1   0.1100
     38 H13       -20.6146    18.6520   -19.6060 H          1  LIG1   0.1000
     39 H14       -18.8810    19.0392   -19.7186 H          1  LIG1   0.0900
     40 H15       -20.5205    17.5801   -21.8398 H          1  LIG1   0.0600
     41 H16       -19.9913    19.2775   -21.9229 H          1  LIG1   0.0600
     42 H17       -18.2058    16.9925   -21.7840 H          1  LIG1   0.4000
     43 H18       -15.7002    15.9700   -17.7100 H          1  LIG1   0.4100
     44 H19       -13.9677    16.3374   -15.9456 H          1  LIG1   0.1000
     45 H20       -15.2948    16.9609   -14.9363 H          1  LIG1   0.1000
     46 H21       -16.7011    14.4288   -16.8080 H          1  LIG1   0.1500
     47 H22       -17.1754    12.1442   -16.0218 H          1  LIG1   0.1600
     48 H23       -14.4661    12.7047   -12.7707 H          1  LIG1   0.1600
@<TRIPOS>BOND
     1    1    2 2
     2    2    3 1
     3    2   15 am
     4    3    4 1
     5    3   28 1
     6    3   29 1
     7    4    5 1
     8    4   10 1
     9    4    6 1
    10    6    7 1
    11    6   30 1
    12    6   31 1
    13    7    8 1
    14    7   32 1
    15    7   33 1
    16    8    9 1
    17    8   34 1
    18    8   35 1
    19    9   10 1
    20    9   36 1
    21    9   37 1
    22   10   11 1
    23   10   12 1
    24   12   13 1
    25   12   38 1
    26   12   39 1
    27   13   14 1
    28   13   40 1
    29   13   41 1
    30   14   42 1
    31   15   16 1
    32   15   43 1
    33   16   17 1
    34   16   44 1
    35   16   45 1
    36   17   23 ar
    37   17   18 ar
    38   18   19 ar
    39   18   46 1
    40   19   20 ar
    41   19   47 1
    42   20   21 1
    43   20   22 ar
    44   22   23 ar
    45   22   48 1
    46   23   24 1
    47   24   25 1
    48   24   26 1
    49   24   27 1
##########                 Name:     ZINC000662408610
##########          Protonation:                 none
##########               SMILES:   CC[C@H]([NH2+]C)C(=O)NCCCOC1=CC=C(Cl)C=C1C
##########            Long Name:   NO_LONG_NAME
##########          FlexRecCode: 1
##########               Number:                 2506
##########   Ligand Source File: /nfs/db/export/3D/CF/ADRO/CFADRO.xbvf.db2.gz
##########                 Rank:                    1
##########               Setnum:                  198
##########             Matchnum:                    1
##########                Cloud:                    1
##########        Electrostatic:           -52.721970
##########                 Gist:             0.000000
##########        Van der Waals:           -26.831734
##########  Ligand Polar Desolv:            19.128574
########## Ligand Apolar Desolv:            -4.041151
##########      Internal Energy:             0.000000
##########      Receptor Energy:             0.000000
########## Receptor Desolvation:             0.000000
########## Receptor Hydrophobic:             0.000000
##########         Total Energy:           -64.466278
##########        Ligand Charge:             1.000000
##########            Arbitrary:    +999.9990
##########        Ligand Energy:             0.000000

@<TRIPOS>MOLECULE
 ZINC000662408610      none
   44    44     0     0     0



@<TRIPOS>ATOM
      1 C1        -21.0204    18.1518   -18.7125 C.3        1  LIG1  -0.1700
      2 C2        -20.4362    16.7569   -18.9440 C.3        1  LIG1  -0.1400
      3 C3        -18.9277    16.8677   -19.1746 C.3        1  LIG1   0.0100
      4 H1        -18.7385    17.4906   -20.0488 H          1  LIG1   0.1600
      5 N1        -18.3666    15.5284   -19.3970 N.4        1  LIG1  -0.4900
      6 H2        -18.5416    14.9518   -18.5876 H          1  LIG1   0.4400
      7 H3        -18.8010    15.1119   -20.2069 H          1  LIG1   0.4400
      8 C4        -16.9183    15.6349   -19.6183 C.3        1  LIG1  -0.0500
      9 C5        -18.2790    17.4895   -17.9647 C.2        1  LIG1   0.5000
     10 O1        -17.6647    18.5297   -18.0733 O.2        1  LIG1  -0.5200
     11 N2        -18.3814    16.8899   -16.7621 N.am       1  LIG1  -0.7000
     12 C6        -17.7510    17.4943   -15.5860 C.3        1  LIG1   0.1200
     13 C7        -16.3232    16.9634   -15.4433 C.3        1  LIG1  -0.1300
     14 C8        -16.3586    15.4428   -15.2780 C.3        1  LIG1   0.0600
     15 O2        -15.0249    14.9470   -15.1446 O.3        1  LIG1  -0.3100
     16 C9        -14.8563    13.8221   -14.4005 C.ar       1  LIG1   0.1300
     17 C10       -15.4926    12.6453   -14.7669 C.ar       1  LIG1  -0.1900
     18 C11       -15.3200    11.5029   -14.0093 C.ar       1  LIG1  -0.0800
     19 C12       -14.5132    11.5321   -12.8859 C.ar       1  LIG1  -0.0600
     20 Cl1       -14.2979    10.0954   -11.9356 Cl         1  LIG1  -0.0600
     21 C13       -13.8771    12.7052   -12.5190 C.ar       1  LIG1  -0.0700
     22 C14       -14.0429    13.8479   -13.2768 C.ar       1  LIG1  -0.1000
     23 C15       -13.3501    15.1251   -12.8769 C.3        1  LIG1  -0.1100
     24 H4        -22.0952    18.0728   -18.5482 H          1  LIG1   0.0900
     25 H5        -20.5513    18.6017   -17.8375 H          1  LIG1   0.0800
     26 H6        -20.8313    18.7748   -19.5867 H          1  LIG1   0.0600
     27 H7        -20.6253    16.1341   -18.0698 H          1  LIG1   0.1200
     28 H8        -20.9053    16.3071   -19.8191 H          1  LIG1   0.1000
     29 H9        -16.5020    14.6411   -19.7833 H          1  LIG1   0.1300
     30 H10       -16.7292    16.2578   -20.4925 H          1  LIG1   0.1200
     31 H11       -16.4491    16.0846   -18.7434 H          1  LIG1   0.1300
     32 H12       -18.8727    16.0580   -16.6753 H          1  LIG1   0.4100
     33 H13       -17.7257    18.5776   -15.7038 H          1  LIG1   0.0900
     34 H14       -18.3243    17.2390   -14.6949 H          1  LIG1   0.0800
     35 H15       -15.7497    17.2188   -16.3344 H          1  LIG1   0.0900
     36 H16       -15.8541    17.4132   -14.5682 H          1  LIG1   0.0900
     37 H17       -16.9319    15.1874   -14.3868 H          1  LIG1   0.0700
     38 H18       -16.8276    14.9930   -16.1530 H          1  LIG1   0.0700
     39 H19       -16.1229    12.6222   -15.6437 H          1  LIG1   0.1400
     40 H20       -15.8156    10.5866   -14.2941 H          1  LIG1   0.1400
     41 H21       -13.2473    12.7260   -11.6419 H          1  LIG1   0.1400
     42 H22       -12.7602    14.9519   -11.9768 H          1  LIG1   0.0700
     43 H23       -12.6941    15.4508   -13.6842 H          1  LIG1   0.0700
     44 H24       -14.0950    15.8962   -12.6803 H          1  LIG1   0.0700
@<TRIPOS>BOND
     1    1    2 1
     2    1   24 1
     3    1   25 1
     4    1   26 1
     5    2    3 1
     6    2   27 1
     7    2   28 1
     8    3    4 1
     9    3    5 1
    10    3    9 1
    11    5    6 1
    12    5    7 1
    13    5    8 1
    14    8   29 1
    15    8   30 1
    16    8   31 1
    17    9   10 2
    18    9   11 am
    19   11   12 1
    20   11   32 1
    21   12   13 1
    22   12   33 1
    23   12   34 1
    24   13   14 1
    25   13   35 1
    26   13   36 1
    27   14   15 1
    28   14   37 1
    29   14   38 1
    30   15   16 1
    31   16   22 ar
    32   16   17 ar
    33   17   18 ar
    34   17   39 1
    35   18   19 ar
    36   18   40 1
    37   19   20 1
    38   19   21 ar
    39   21   22 ar
    40   21   41 1
    41   22   23 1
    42   23   42 1
    43   23   43 1
    44   23   44 1
##########                 Name:     ZINC000157057826
##########          Protonation:                 none
##########               SMILES:   O=C(CCC1=CC=C(F)C=C1F)NCC[NH+]1CCCCCC1
##########            Long Name:   NO_LONG_NAME
##########          FlexRecCode: 1
##########               Number:                 4915
##########   Ligand Source File: /nfs/db/export/3D/DF/ADRO/DFADRO.xapj.db2.gz
##########                 Rank:                    1
##########               Setnum:                  149
##########             Matchnum:                    1
##########                Cloud:                    1
##########        Electrostatic:           -45.981144
##########                 Gist:             0.000000
##########        Van der Waals:           -28.379677
##########  Ligand Polar Desolv:            15.969805
########## Ligand Apolar Desolv:            -5.592090
##########      Internal Energy:             0.000000
##########      Receptor Energy:             0.000000
########## Receptor Desolvation:             0.000000
########## Receptor Hydrophobic:             0.000000
##########         Total Energy:           -63.983109
##########        Ligand Charge:             1.000000
##########            Arbitrary:    +999.9990
##########        Ligand Energy:             0.000000

@<TRIPOS>MOLECULE
 ZINC000157057826      none
   47    48     0     0     0



@<TRIPOS>ATOM
      1 O1        -16.2032    17.6805   -15.5910 O.2        1  LIG1  -0.5200
      2 C1        -16.4532    16.5283   -15.8757 C.2        1  LIG1   0.5200
      3 C2        -16.2922    15.4446   -14.8411 C.3        1  LIG1  -0.1400
      4 C3        -15.2747    14.4144   -15.3356 C.3        1  LIG1  -0.0600
      5 C4        -15.1136    13.3307   -14.3010 C.ar       1  LIG1  -0.1400
      6 C5        -15.9179    12.2079   -14.3459 C.ar       1  LIG1  -0.0600
      7 C6        -15.7709    11.2129   -13.3978 C.ar       1  LIG1  -0.1600
      8 C7        -14.8176    11.3401   -12.4018 C.ar       1  LIG1   0.1300
      9 F1        -14.6738    10.3672   -11.4756 F          1  LIG1  -0.1300
     10 C8        -14.0112    12.4646   -12.3558 C.ar       1  LIG1  -0.1900
     11 C9        -14.1557    13.4578   -13.3088 C.ar       1  LIG1   0.1300
     12 F2        -13.3696    14.5557   -13.2650 F          1  LIG1  -0.1300
     13 N1        -16.8805    16.2181   -17.1157 N.am       1  LIG1  -0.7400
     14 C10       -17.0430    17.2725   -18.1197 C.3        1  LIG1   0.1000
     15 C11       -18.4653    17.8316   -18.0466 C.3        1  LIG1  -0.0200
     16 N2        -19.4561    16.7237   -18.3152 N.4        1  LIG1  -0.3800
     17 H1        -19.0557    15.8760   -17.8031 H          1  LIG1   0.4300
     18 C12       -19.4863    16.3351   -19.7739 C.3        1  LIG1   0.0000
     19 C13       -20.5051    17.1210   -20.5869 C.3        1  LIG1  -0.1400
     20 C14       -21.8826    16.4602   -20.5906 C.3        1  LIG1  -0.1300
     21 C15       -22.6442    16.5387   -19.2733 C.3        1  LIG1  -0.1300
     22 C16       -21.8762    16.0499   -18.0462 C.3        1  LIG1  -0.1400
     23 C17       -20.7708    17.0103   -17.6317 C.3        1  LIG1  -0.0100
     24 H2        -15.9407    15.8831   -13.9071 H          1  LIG1   0.1000
     25 H3        -17.2521    14.9559   -14.6743 H          1  LIG1   0.1000
     26 H4        -15.6263    13.9759   -16.2696 H          1  LIG1   0.0900
     27 H5        -14.3147    14.9031   -15.5025 H          1  LIG1   0.0900
     28 H6        -16.6620    12.1079   -15.1222 H          1  LIG1   0.1500
     29 H7        -16.4002    10.3359   -13.4336 H          1  LIG1   0.1500
     30 H8        -13.2674    12.5648   -11.5793 H          1  LIG1   0.1500
     31 H9        -17.0803    15.2967   -17.3434 H          1  LIG1   0.4100
     32 H10       -16.3280    18.0720   -17.9259 H          1  LIG1   0.0900
     33 H11       -16.8656    16.8593   -19.1126 H          1  LIG1   0.0900
     34 H12       -18.6427    18.2448   -17.0537 H          1  LIG1   0.1400
     35 H13       -18.5863    18.6160   -18.7935 H          1  LIG1   0.1400
     36 H14       -18.4981    16.5044   -20.1919 H          1  LIG1   0.1300
     37 H15       -19.7255    15.2776   -19.8398 H          1  LIG1   0.1300
     38 H16       -20.5774    18.1440   -20.1682 H          1  LIG1   0.1100
     39 H17       -20.1294    17.2180   -21.6243 H          1  LIG1   0.0800
     40 H18       -22.5215    16.9249   -21.3537 H          1  LIG1   0.0700
     41 H19       -21.7888    15.3944   -20.8391 H          1  LIG1   0.0800
     42 H20       -22.9389    17.5884   -19.1405 H          1  LIG1   0.0900
     43 H21       -23.5620    15.9493   -19.4033 H          1  LIG1   0.0700
     44 H22       -22.5704    15.9206   -17.1922 H          1  LIG1   0.0900
     45 H23       -21.4250    15.0589   -18.2523 H          1  LIG1   0.1100
     46 H24       -20.6245    16.9347   -16.5602 H          1  LIG1   0.1300
     47 H25       -21.0711    18.0205   -17.8857 H          1  LIG1   0.1300
@<TRIPOS>BOND
     1    1    2 2
     2    2    3 1
     3    2   13 am
     4    3    4 1
     5    3   24 1
     6    3   25 1
     7    4    5 1
     8    4   26 1
     9    4   27 1
    10    5   11 ar
    11    5    6 ar
    12    6    7 ar
    13    6   28 1
    14    7    8 ar
    15    7   29 1
    16    8    9 1
    17    8   10 ar
    18   10   11 ar
    19   10   30 1
    20   11   12 1
    21   13   14 1
    22   13   31 1
    23   14   15 1
    24   14   32 1
    25   14   33 1
    26   15   16 1
    27   15   34 1
    28   15   35 1
    29   16   17 1
    30   16   23 1
    31   16   18 1
    32   18   19 1
    33   18   36 1
    34   18   37 1
    35   19   20 1
    36   19   38 1
    37   19   39 1
    38   20   21 1
    39   20   40 1
    40   20   41 1
    41   21   22 1
    42   21   42 1
    43   21   43 1
    44   22   23 1
    45   22   44 1
    46   22   45 1
    47   23   46 1
    48   23   47 1
##########                 Name:     ZINC000640096168
##########          Protonation:                 none
##########               SMILES:   O=C(C[N@@H+]1CC[C@H](O)[C@@H]2CCCC[C@H]21)NC1=CC=C2CCCC2=C1
##########            Long Name:   NO_LONG_NAME
##########          FlexRecCode: 1
##########               Number:                 4150
##########   Ligand Source File: /nfs/db/export/3D/EF/ADMO/EFADMO.xboy.db2.gz
##########                 Rank:                    1
##########               Setnum:                   36
##########             Matchnum:                    1
##########                Cloud:                    1
##########        Electrostatic:           -42.818356
##########                 Gist:             0.000000
##########        Van der Waals:           -30.704792
##########  Ligand Polar Desolv:            14.364634
########## Ligand Apolar Desolv:            -5.237334
##########      Internal Energy:             0.000000
##########      Receptor Energy:             0.000000
########## Receptor Desolvation:             0.000000
########## Receptor Hydrophobic:             0.000000
##########         Total Energy:           -64.395851
##########        Ligand Charge:             1.000000
##########            Arbitrary:    +999.9990
##########        Ligand Energy:             0.000000

@<TRIPOS>MOLECULE
 ZINC000640096168      none
   53    56     0     0     0



@<TRIPOS>ATOM
      1 O1        -16.8124    17.6689   -15.8201 O.2        1  LIG1  -0.5100
      2 C1        -17.5997    16.7621   -15.9895 C.2        1  LIG1   0.5000
      3 C2        -18.9551    17.0425   -16.5857 C.3        1  LIG1  -0.0400
      4 N1        -18.8808    16.9237   -18.0480 N.4        1  LIG1  -0.3700
      5 H1        -18.5914    15.9890   -18.2942 H          1  LIG1   0.4300
      6 C3        -17.9048    17.8894   -18.5669 C.3        1  LIG1  -0.0100
      7 C4        -17.7640    17.7154   -20.0806 C.3        1  LIG1  -0.1800
      8 C5        -19.1232    17.9535   -20.7449 C.3        1  LIG1   0.0900
      9 H2        -19.0411    17.7753   -21.8171 H          1  LIG1   0.0900
     10 O2        -19.5381    19.3014   -20.5149 O.3        1  LIG1  -0.5600
     11 C6        -20.1499    16.9899   -20.1428 C.3        1  LIG1  -0.0900
     12 H3        -19.8587    15.9630   -20.3634 H          1  LIG1   0.1000
     13 C7        -21.5271    17.2716   -20.7467 C.3        1  LIG1  -0.1100
     14 C8        -22.5550    16.3140   -20.1407 C.3        1  LIG1  -0.1300
     15 C9        -22.6111    16.5185   -18.6254 C.3        1  LIG1  -0.1200
     16 C10       -21.2338    16.2373   -18.0213 C.3        1  LIG1  -0.1400
     17 C11       -20.2024    17.1935   -18.6270 C.3        1  LIG1   0.0300
     18 H4        -20.4907    18.2223   -18.4110 H          1  LIG1   0.1500
     19 N2        -17.2604    15.5028   -15.6496 N.am       1  LIG1  -0.6400
     20 C12       -16.0020    15.2424   -15.0961 C.ar       1  LIG1   0.1100
     21 C13       -14.9152    16.0386   -15.4317 C.ar       1  LIG1  -0.1100
     22 C14       -13.6762    15.7775   -14.8824 C.ar       1  LIG1  -0.0900
     23 C15       -13.5117    14.7241   -13.9978 C.ar       1  LIG1  -0.0900
     24 C16       -12.2750    14.2393   -13.2716 C.3        1  LIG1  -0.0900
     25 C17       -12.8019    13.3462   -12.1284 C.3        1  LIG1  -0.1200
     26 C18       -14.1551    12.8568   -12.6867 C.3        1  LIG1  -0.0900
     27 C19       -14.5926    13.9293   -13.6616 C.ar       1  LIG1  -0.0800
     28 C20       -15.8374    14.1909   -14.2054 C.ar       1  LIG1  -0.1200
     29 H5        -19.6778    16.3241   -16.1990 H          1  LIG1   0.1700
     30 H6        -19.2677    18.0520   -16.3185 H          1  LIG1   0.1600
     31 H7        -18.2443    18.9017   -18.3481 H          1  LIG1   0.1300
     32 H8        -16.9389    17.7204   -18.0909 H          1  LIG1   0.1500
     33 H9        -17.0405    18.4350   -20.4640 H          1  LIG1   0.1200
     34 H10       -17.4236    16.7036   -20.3007 H          1  LIG1   0.1000
     35 H11       -19.6344    19.5292   -19.5800 H          1  LIG1   0.3900
     36 H12       -21.8158    18.2998   -20.5290 H          1  LIG1   0.0900
     37 H13       -21.4871    17.1261   -21.8262 H          1  LIG1   0.0800
     38 H14       -23.5362    16.5145   -20.5709 H          1  LIG1   0.0800
     39 H15       -22.2662    15.2857   -20.3580 H          1  LIG1   0.0700
     40 H16       -22.9001    17.5468   -18.4081 H          1  LIG1   0.0800
     41 H17       -23.3434    15.8364   -18.1936 H          1  LIG1   0.0900
     42 H18       -21.2739    16.3831   -16.9419 H          1  LIG1   0.0900
     43 H19       -20.9449    15.2090   -18.2386 H          1  LIG1   0.0900
     44 H20       -17.8887    14.7768   -15.7887 H          1  LIG1   0.4200
     45 H21       -15.0389    16.8603   -16.1214 H          1  LIG1   0.1400
     46 H22       -12.8311    16.3971   -15.1437 H          1  LIG1   0.1300
     47 H23       -11.6442    13.6588   -13.9447 H          1  LIG1   0.0900
     48 H24       -11.7191    15.0845   -12.8656 H          1  LIG1   0.0800
     49 H25       -12.1295    12.5069   -11.9513 H          1  LIG1   0.0800
     50 H26       -12.9461    13.9276   -11.2176 H          1  LIG1   0.0800
     51 H27       -14.0292    11.9051   -13.2028 H          1  LIG1   0.0900
     52 H28       -14.8830    12.7580   -11.8815 H          1  LIG1   0.0800
     53 H29       -16.6823    13.5733   -13.9388 H          1  LIG1   0.1300
@<TRIPOS>BOND
     1    1    2 2
     2    2    3 1
     3    2   19 am
     4    3    4 1
     5    3   29 1
     6    3   30 1
     7    4    5 1
     8    4   17 1
     9    4    6 1
    10    6    7 1
    11    6   31 1
    12    6   32 1
    13    7    8 1
    14    7   33 1
    15    7   34 1
    16    8    9 1
    17    8   10 1
    18    8   11 1
    19   10   35 1
    20   11   12 1
    21   11   17 1
    22   11   13 1
    23   13   14 1
    24   13   36 1
    25   13   37 1
    26   14   15 1
    27   14   38 1
    28   14   39 1
    29   15   16 1
    30   15   40 1
    31   15   41 1
    32   16   17 1
    33   16   42 1
    34   16   43 1
    35   17   18 1
    36   19   20 1
    37   19   44 1
    38   20   28 ar
    39   20   21 ar
    40   21   22 ar
    41   21   45 1
    42   22   23 ar
    43   22   46 1
    44   23   27 ar
    45   23   24 1
    46   24   25 1
    47   24   47 1
    48   24   48 1
    49   25   26 1
    50   25   49 1
    51   25   50 1
    52   26   27 1
    53   26   51 1
    54   26   52 1
    55   27   28 ar
    56   28   53 1
##########                 Name:     ZINC000466668405
##########          Protonation:                 none
##########               SMILES:   C[C@H]1CC[C@H](C)[NH+]1CC(=O)NCCC1=C2C=CC=CC2=CC=C1
##########            Long Name:   NO_LONG_NAME
##########          FlexRecCode: 1
##########               Number:                12636
##########   Ligand Source File: /nfs/db/export/3D/DG/ADRO/DGADRO.xago.db2.gz
##########                 Rank:                    1
##########               Setnum:                    4
##########             Matchnum:                    1
##########                Cloud:                    1
##########        Electrostatic:           -39.842461
##########                 Gist:             0.000000
##########        Van der Waals:           -33.450626
##########  Ligand Polar Desolv:            15.581171
########## Ligand Apolar Desolv:            -6.122615
##########      Internal Energy:             0.000000
##########      Receptor Energy:             0.000000
########## Receptor Desolvation:             0.000000
########## Receptor Hydrophobic:             0.000000
##########         Total Energy:           -63.834534
##########        Ligand Charge:             1.000000
##########            Arbitrary:    +999.9990
##########        Ligand Energy:             0.000000

@<TRIPOS>MOLECULE
 ZINC000466668405      none
   50    52     0     0     0



@<TRIPOS>ATOM
      1 C1        -21.9068    16.6549   -17.4355 C.3        1  LIG1  -0.1900
      2 C2        -21.0031    16.1141   -18.5454 C.3        1  LIG1   0.0300
      3 H1        -21.0804    15.0278   -18.5899 H          1  LIG1   0.1400
      4 C3        -21.4135    16.7257   -19.9013 C.3        1  LIG1  -0.1400
      5 C4        -20.0514    16.9578   -20.6068 C.3        1  LIG1  -0.1400
      6 C5        -19.1455    17.3558   -19.4149 C.3        1  LIG1   0.0200
      7 H2        -19.2767    18.4108   -19.1743 H          1  LIG1   0.1400
      8 C6        -17.6793    17.0627   -19.7390 C.3        1  LIG1  -0.1800
      9 N1        -19.6052    16.5074   -18.2902 N.4        1  LIG1  -0.3800
     10 H3        -19.0240    15.6850   -18.2257 H          1  LIG1   0.4300
     11 C7        -19.5298    17.2670   -17.0350 C.3        1  LIG1  -0.0400
     12 C8        -18.1004    17.6680   -16.7757 C.2        1  LIG1   0.5100
     13 O1        -17.6794    18.7224   -17.2026 O.2        1  LIG1  -0.5300
     14 N2        -17.2898    16.8551   -16.0697 N.am       1  LIG1  -0.7100
     15 C9        -15.9003    17.2450   -15.8178 C.3        1  LIG1   0.1200
     16 C10       -14.9599    16.2000   -16.4216 C.3        1  LIG1  -0.0900
     17 C11       -15.2276    14.8585   -15.7896 C.ar       1  LIG1  -0.0900
     18 C12       -14.5356    14.4738   -14.6289 C.ar       1  LIG1  -0.0400
     19 C13       -13.5857    15.3200   -14.0314 C.ar       1  LIG1  -0.1200
     20 C14       -12.9350    14.9140   -12.9072 C.ar       1  LIG1  -0.1100
     21 C15       -13.1955    13.6691   -12.3372 C.ar       1  LIG1  -0.1200
     22 C16       -14.1080    12.8231   -12.8882 C.ar       1  LIG1  -0.1000
     23 C17       -14.8008    13.2079   -14.0490 C.ar       1  LIG1  -0.0500
     24 C18       -15.7504    12.3621   -14.6462 C.ar       1  LIG1  -0.1000
     25 C19       -16.4023    12.7686   -15.7700 C.ar       1  LIG1  -0.1200
     26 C20       -16.1452    14.0151   -16.3371 C.ar       1  LIG1  -0.1000
     27 H4        -21.8243    17.7412   -17.3968 H          1  LIG1   0.0800
     28 H5        -22.9403    16.3762   -17.6402 H          1  LIG1   0.1100
     29 H6        -21.5992    16.2331   -16.4786 H          1  LIG1   0.0900
     30 H7        -22.0275    16.0268   -20.4694 H          1  LIG1   0.1100
     31 H8        -21.9377    17.6702   -19.7552 H          1  LIG1   0.1000
     32 H9        -19.6953    16.0422   -21.0791 H          1  LIG1   0.1000
     33 H10       -20.1205    17.7683   -21.3323 H          1  LIG1   0.1200
     34 H11       -17.0559    17.3479   -18.8916 H          1  LIG1   0.1100
     35 H12       -17.5570    15.9982   -19.9382 H          1  LIG1   0.0800
     36 H13       -17.3805    17.6336   -20.6183 H          1  LIG1   0.0800
     37 H14       -20.1492    18.1603   -17.1132 H          1  LIG1   0.1600
     38 H15       -19.8879    16.6470   -16.2132 H          1  LIG1   0.1600
     39 H16       -17.6265    16.0118   -15.7284 H          1  LIG1   0.4100
     40 H17       -15.7066    18.2153   -16.2749 H          1  LIG1   0.0800
     41 H18       -15.7300    17.3092   -14.7431 H          1  LIG1   0.0800
     42 H19       -15.1300    16.1360   -17.4964 H          1  LIG1   0.0900
     43 H20       -13.9261    16.4901   -16.2342 H          1  LIG1   0.0900
     44 H21       -13.3731    16.2872   -14.4622 H          1  LIG1   0.1200
     45 H22       -12.2056    15.5662   -12.4500 H          1  LIG1   0.1200
     46 H23       -12.6647    13.3710   -11.4450 H          1  LIG1   0.1300
     47 H24       -14.2989    11.8611   -12.4359 H          1  LIG1   0.1300
     48 H25       -15.9619    11.3941   -14.2162 H          1  LIG1   0.1300
     49 H26       -17.1316    12.1164   -16.2273 H          1  LIG1   0.1300
     50 H27       -16.6766    14.3135   -17.2287 H          1  LIG1   0.1200
@<TRIPOS>BOND
     1    1    2 1
     2    1   27 1
     3    1   28 1
     4    1   29 1
     5    2    3 1
     6    2    9 1
     7    2    4 1
     8    4    5 1
     9    4   30 1
    10    4   31 1
    11    5    6 1
    12    5   32 1
    13    5   33 1
    14    6    7 1
    15    6    8 1
    16    6    9 1
    17    8   34 1
    18    8   35 1
    19    8   36 1
    20    9   10 1
    21    9   11 1
    22   11   12 1
    23   11   37 1
    24   11   38 1
    25   12   13 2
    26   12   14 am
    27   14   15 1
    28   14   39 1
    29   15   16 1
    30   15   40 1
    31   15   41 1
    32   16   17 1
    33   16   42 1
    34   16   43 1
    35   17   26 ar
    36   17   18 ar
    37   18   23 ar
    38   18   19 ar
    39   19   20 ar
    40   19   44 1
    41   20   21 ar
    42   20   45 1
    43   21   22 ar
    44   21   46 1
    45   22   23 ar
    46   22   47 1
    47   23   24 ar
    48   24   25 ar
    49   24   48 1
    50   25   26 ar
    51   25   49 1
    52   26   50 1
##########                 Name:     ZINC000577753490
##########          Protonation:                 none
##########               SMILES:   O=C(NCC1=CC2=C(CCCC2)S1)[C@@H]1C[C@H]2CCCC[C@@H]2[NH2+]1
##########            Long Name:   NO_LONG_NAME
##########          FlexRecCode: 1
##########               Number:                 8361
##########   Ligand Source File: /nfs/db/export/3D/DG/ADRO/DGADRO.xavs.db2.gz
##########                 Rank:                    1
##########               Setnum:                   86
##########             Matchnum:                    1
##########                Cloud:                    1
##########        Electrostatic:           -44.352242
##########                 Gist:             0.000000
##########        Van der Waals:           -27.543230
##########  Ligand Polar Desolv:            12.797739
########## Ligand Apolar Desolv:            -5.154975
##########      Internal Energy:             0.000000
##########      Receptor Energy:             0.000000
########## Receptor Desolvation:             0.000000
########## Receptor Hydrophobic:             0.000000
##########         Total Energy:           -64.252708
##########        Ligand Charge:             1.000000
##########            Arbitrary:    +999.9990
##########        Ligand Energy:             0.000000

@<TRIPOS>MOLECULE
 ZINC000577753490      none
   49    52     0     0     0



@<TRIPOS>ATOM
      1 O1        -17.0055    18.6154   -18.5878 O.2        1  LIG1  -0.5200
      2 C1        -17.2788    17.4436   -18.4350 C.2        1  LIG1   0.5100
      3 N1        -16.6667    16.7293   -17.4700 N.am       1  LIG1  -0.7000
      4 C2        -15.6713    17.3680   -16.6054 C.3        1  LIG1   0.2000
      5 C3        -15.1423    16.3598   -15.6182 C.2        1  LIG1  -0.2400
      6 C4        -14.2295    16.6078   -14.6844 C.2        1  LIG1  -0.0900
      7 C5        -13.8837    15.5282   -13.8763 C.2        1  LIG1  -0.1100
      8 C6        -14.5420    14.3936   -14.1795 C.2        1  LIG1  -0.1500
      9 C7        -14.3607    13.0721   -13.4632 C.3        1  LIG1  -0.0600
     10 C8        -13.0622    13.1266   -12.6529 C.3        1  LIG1  -0.1200
     11 C9        -13.0470    14.4135   -11.8227 C.3        1  LIG1  -0.1200
     12 C10       -12.8591    15.6133   -12.7530 C.3        1  LIG1  -0.0600
     13 S1        -15.6431    14.6782   -15.5205 S.3        1  LIG1   0.1200
     14 C11       -18.3074    16.7882   -19.3202 C.3        1  LIG1   0.0100
     15 H1        -17.8555    15.9598   -19.8657 H          1  LIG1   0.1700
     16 C12       -18.8872    17.8248   -20.3161 C.3        1  LIG1  -0.1300
     17 C13       -20.3687    17.9046   -19.9448 C.3        1  LIG1  -0.1100
     18 H2        -20.5281    18.6696   -19.1848 H          1  LIG1   0.1100
     19 C14       -21.3342    18.1002   -21.0993 C.3        1  LIG1  -0.1100
     20 C15       -22.7555    18.0839   -20.5135 C.3        1  LIG1  -0.1300
     21 C16       -23.0369    16.7841   -19.7659 C.3        1  LIG1  -0.1200
     22 C17       -21.9786    16.5182   -18.6829 C.3        1  LIG1  -0.1300
     23 C18       -20.6232    16.4911   -19.3526 C.3        1  LIG1   0.0100
     24 H3        -20.6253    15.7636   -20.1642 H          1  LIG1   0.1500
     25 N2        -19.4478    16.2944   -18.4966 N.4        1  LIG1  -0.4900
     26 H4        -19.3239    15.3151   -18.2874 H          1  LIG1   0.4400
     27 H5        -19.5381    16.8282   -17.6453 H          1  LIG1   0.4400
     28 H6        -16.8851    15.7921   -17.3477 H          1  LIG1   0.4100
     29 H7        -14.8501    17.7457   -17.2144 H          1  LIG1   0.1000
     30 H8        -16.1346    18.1950   -16.0673 H          1  LIG1   0.0900
     31 H9        -13.7844    17.5840   -14.5608 H          1  LIG1   0.1400
     32 H10       -15.2030    12.9010   -12.7930 H          1  LIG1   0.0900
     33 H11       -14.3021    12.2653   -14.1938 H          1  LIG1   0.0800
     34 H12       -13.0098    12.2636   -11.9890 H          1  LIG1   0.0800
     35 H13       -12.2086    13.1197   -13.3306 H          1  LIG1   0.0700
     36 H14       -13.9916    14.5124   -11.2877 H          1  LIG1   0.0700
     37 H15       -12.2254    14.3755   -11.1075 H          1  LIG1   0.0700
     38 H16       -11.8537    15.5955   -13.1737 H          1  LIG1   0.0800
     39 H17       -13.0068    16.5366   -12.1930 H          1  LIG1   0.0800
     40 H18       -18.4067    18.7940   -20.1819 H          1  LIG1   0.1100
     41 H19       -18.7684    17.4769   -21.3422 H          1  LIG1   0.1200
     42 H20       -21.1436    19.0576   -21.5840 H          1  LIG1   0.0900
     43 H21       -21.2204    17.2898   -21.8193 H          1  LIG1   0.0800
     44 H22       -22.8667    18.9221   -19.8255 H          1  LIG1   0.0700
     45 H23       -23.4762    18.1920   -21.3240 H          1  LIG1   0.0800
     46 H24       -24.0187    16.8482   -19.2967 H          1  LIG1   0.0900
     47 H25       -23.0359    15.9571   -20.4760 H          1  LIG1   0.0700
     48 H26       -21.9973    17.3173   -17.9417 H          1  LIG1   0.0900
     49 H27       -22.1735    15.5598   -18.2012 H          1  LIG1   0.0900
@<TRIPOS>BOND
     1    1    2 2
     2    2    3 am
     3    2   14 1
     4    3    4 1
     5    3   28 1
     6    4    5 1
     7    4   29 1
     8    4   30 1
     9    5   13 1
    10    5    6 2
    11    6    7 1
    12    6   31 1
    13    7   12 1
    14    7    8 2
    15    8    9 1
    16    8   13 1
    17    9   10 1
    18    9   32 1
    19    9   33 1
    20   10   11 1
    21   10   34 1
    22   10   35 1
    23   11   12 1
    24   11   36 1
    25   11   37 1
    26   12   38 1
    27   12   39 1
    28   14   15 1
    29   14   25 1
    30   14   16 1
    31   16   17 1
    32   16   40 1
    33   16   41 1
    34   17   18 1
    35   17   23 1
    36   17   19 1
    37   19   20 1
    38   19   42 1
    39   19   43 1
    40   20   21 1
    41   20   44 1
    42   20   45 1
    43   21   22 1
    44   21   46 1
    45   21   47 1
    46   22   23 1
    47   22   48 1
    48   22   49 1
    49   23   24 1
    50   23   25 1
    51   25   26 1
    52   25   27 1
##########                 Name:     ZINC000248589385
##########          Protonation:                 none
##########               SMILES:   CCO[C@@H]1C[C@H]([NH2+]CC2=CC(OC)=CC=C2O)[C@H]1OC1=CC=CC=C1
##########            Long Name:   NO_LONG_NAME
##########          FlexRecCode: 1
##########               Number:                 1450
##########   Ligand Source File: /nfs/db/export/3D/EG/CDRO/EGCDRO.xag.db2.gz
##########                 Rank:                    1
##########               Setnum:                  307
##########             Matchnum:                    1
##########                Cloud:                    1
##########        Electrostatic:           -42.381741
##########                 Gist:             0.000000
##########        Van der Waals:           -29.693670
##########  Ligand Polar Desolv:            12.669453
########## Ligand Apolar Desolv:            -3.077064
##########      Internal Energy:             0.000000
##########      Receptor Energy:             0.000000
########## Receptor Desolvation:             0.000000
########## Receptor Hydrophobic:             0.000000
##########         Total Energy:           -62.483021
##########        Ligand Charge:             1.000000
##########            Arbitrary:    +999.9990
##########        Ligand Energy:             0.000000

@<TRIPOS>MOLECULE
 ZINC000248589385      none
   51    53     0     0     0



@<TRIPOS>ATOM
      1 C1        -23.4545    18.8348   -20.8311 C.3        1  LIG1  -0.1600
      2 C2        -22.4610    17.6752   -20.9262 C.3        1  LIG1   0.0600
      3 O1        -21.2006    18.0828   -20.3900 O.3        1  LIG1  -0.3600
      4 C3        -20.1958    17.0675   -20.4312 C.3        1  LIG1   0.0600
      5 H1        -20.2176    16.4877   -21.3539 H          1  LIG1   0.1200
      6 C4        -20.1420    16.2022   -19.1611 C.3        1  LIG1  -0.1600
      7 C5        -18.6103    16.2506   -19.2878 C.3        1  LIG1   0.0100
      8 H2        -18.1970    15.4474   -19.8980 H          1  LIG1   0.1800
      9 N1        -17.9178    16.4035   -18.0013 N.4        1  LIG1  -0.5000
     10 H3        -17.9418    17.3720   -17.7195 H          1  LIG1   0.4400
     11 H4        -18.3773    15.8385   -17.3029 H          1  LIG1   0.4300
     12 C6        -16.5216    15.9688   -18.1420 C.3        1  LIG1   0.0600
     13 C7        -15.8114    16.1258   -16.8222 C.ar       1  LIG1  -0.1500
     14 C8        -15.7970    15.0824   -15.9173 C.ar       1  LIG1  -0.1100
     15 C9        -15.1432    15.2268   -14.7024 C.ar       1  LIG1   0.1300
     16 O2        -15.1291    14.1995   -13.8116 O.3        1  LIG1  -0.3100
     17 C10       -15.8078    13.0011   -14.1927 C.3        1  LIG1   0.0200
     18 C11       -14.5034    16.4186   -14.3967 C.ar       1  LIG1  -0.1600
     19 C12       -14.5173    17.4621   -15.3019 C.ar       1  LIG1  -0.0900
     20 C13       -15.1670    17.3160   -16.5185 C.ar       1  LIG1   0.0900
     21 O3        -15.1806    18.3431   -17.4096 O.3        1  LIG1  -0.5000
     22 C14       -18.7933    17.5731   -20.0543 C.3        1  LIG1   0.0500
     23 H5        -18.8054    18.4527   -19.4106 H          1  LIG1   0.1300
     24 O4        -17.9124    17.7144   -21.1706 O.3        1  LIG1  -0.3000
     25 C15       -17.4152    18.9562   -21.4108 C.ar       1  LIG1   0.1100
     26 C16       -18.2771    20.0104   -21.6766 C.ar       1  LIG1  -0.2000
     27 C17       -17.7692    21.2717   -21.9199 C.ar       1  LIG1  -0.0800
     28 C18       -16.4032    21.4841   -21.8993 C.ar       1  LIG1  -0.1400
     29 C19       -15.5421    20.4351   -21.6351 C.ar       1  LIG1  -0.0800
     30 C20       -16.0453    19.1731   -21.3850 C.ar       1  LIG1  -0.1400
     31 H6        -24.4160    18.5240   -21.2401 H          1  LIG1   0.0800
     32 H7        -23.5796    19.1215   -19.7869 H          1  LIG1   0.0700
     33 H8        -23.0761    19.6851   -21.3985 H          1  LIG1   0.0700
     34 H9        -22.8395    16.8250   -20.3588 H          1  LIG1   0.0600
     35 H10       -22.3361    17.3886   -21.9703 H          1  LIG1   0.0600
     36 H11       -20.5228    16.7063   -18.2728 H          1  LIG1   0.1200
     37 H12       -20.5599    15.2043   -19.2946 H          1  LIG1   0.1200
     38 H13       -16.4958    14.9225   -18.4464 H          1  LIG1   0.1400
     39 H14       -16.0254    16.5792   -18.8965 H          1  LIG1   0.1400
     40 H15       -16.2953    14.1542   -16.1556 H          1  LIG1   0.1500
     41 H16       -15.7197    12.2641   -13.3943 H          1  LIG1   0.0600
     42 H17       -16.8605    13.2204   -14.3703 H          1  LIG1   0.1100
     43 H18       -15.3605    12.6044   -15.1041 H          1  LIG1   0.0600
     44 H19       -13.9947    16.5311   -13.4507 H          1  LIG1   0.1500
     45 H20       -14.0193    18.3904   -15.0637 H          1  LIG1   0.1500
     46 H21       -15.6635    18.1502   -18.2248 H          1  LIG1   0.4000
     47 H22       -19.3442    19.8448   -21.6935 H          1  LIG1   0.1300
     48 H23       -18.4398    22.0927   -22.1269 H          1  LIG1   0.1300
     49 H24       -16.0081    22.4709   -22.0900 H          1  LIG1   0.1300
     50 H25       -14.4753    20.6034   -21.6198 H          1  LIG1   0.1400
     51 H26       -15.3722    18.3540   -21.1787 H          1  LIG1   0.1300
@<TRIPOS>BOND
     1    1    2 1
     2    1   31 1
     3    1   32 1
     4    1   33 1
     5    2    3 1
     6    2   34 1
     7    2   35 1
     8    3    4 1
     9    4    5 1
    10    4   22 1
    11    4    6 1
    12    6    7 1
    13    6   36 1
    14    6   37 1
    15    7    8 1
    16    7    9 1
    17    7   22 1
    18    9   10 1
    19    9   11 1
    20    9   12 1
    21   12   13 1
    22   12   38 1
    23   12   39 1
    24   13   20 ar
    25   13   14 ar
    26   14   15 ar
    27   14   40 1
    28   15   16 1
    29   15   18 ar
    30   16   17 1
    31   17   41 1
    32   17   42 1
    33   17   43 1
    34   18   19 ar
    35   18   44 1
    36   19   20 ar
    37   19   45 1
    38   20   21 1
    39   21   46 1
    40   22   23 1
    41   22   24 1
    42   24   25 1
    43   25   30 ar
    44   25   26 ar
    45   26   27 ar
    46   26   47 1
    47   27   28 ar
    48   27   48 1
    49   28   29 ar
    50   28   49 1
    51   29   30 ar
    52   29   50 1
    53   30   51 1
##########                 Name:     ZINC000451479056
##########          Protonation:                 none
##########               SMILES:   CC1(C)[C@H]([NH2+]CC(=O)NC2=CC=C([N+](=O)[O-])C=C2Cl)[C@H]2CCCO[C@@H]21
##########            Long Name:   NO_LONG_NAME
##########          FlexRecCode: 1
##########               Number:                 5107
##########   Ligand Source File: /nfs/db/export/3D/FF/BDRO/FFBDRO.xbs.db2.gz
##########                 Rank:                    1
##########               Setnum:                   40
##########             Matchnum:                    1
##########                Cloud:                    1
##########        Electrostatic:           -43.520309
##########                 Gist:             0.000000
##########        Van der Waals:           -34.957455
##########  Ligand Polar Desolv:            20.247311
########## Ligand Apolar Desolv:            -4.701299
##########      Internal Energy:             0.000000
##########      Receptor Energy:             0.000000
########## Receptor Desolvation:             0.000000
########## Receptor Hydrophobic:             0.000000
##########         Total Energy:           -62.931755
##########        Ligand Charge:             1.000000
##########            Arbitrary:    +999.9990
##########        Ligand Energy:             0.000000

@<TRIPOS>MOLECULE
 ZINC000451479056      none
   48    50     0     0     0



@<TRIPOS>ATOM
      1 C1        -21.9995    15.3817   -19.0444 C.3        1  LIG1  -0.1500
      2 C2        -21.3504    16.7608   -18.9133 C.3        1  LIG1  -0.0500
      3 C3        -21.7222    17.4805   -17.6152 C.3        1  LIG1  -0.1600
      4 C4        -19.8288    16.7797   -19.2403 C.3        1  LIG1   0.0100
      5 H1        -19.5395    16.1077   -20.0483 H          1  LIG1   0.1700
      6 N1        -18.9610    16.6721   -18.0600 N.4        1  LIG1  -0.4900
      7 H2        -18.8897    17.5731   -17.6117 H          1  LIG1   0.4400
      8 H3        -19.3540    16.0048   -17.4132 H          1  LIG1   0.4400
      9 C5        -17.6245    16.2241   -18.4740 C.3        1  LIG1  -0.0300
     10 C6        -16.7343    16.1138   -17.2630 C.2        1  LIG1   0.5100
     11 O1        -16.5168    17.0915   -16.5791 O.2        1  LIG1  -0.5000
     12 N2        -16.1800    14.9285   -16.9401 N.am       1  LIG1  -0.6500
     13 C7        -15.3530    14.8260   -15.8153 C.ar       1  LIG1   0.1900
     14 C8        -14.6079    15.9202   -15.3976 C.ar       1  LIG1  -0.1000
     15 C9        -13.7930    15.8160   -14.2868 C.ar       1  LIG1  -0.0300
     16 C10       -13.7187    14.6237   -13.5909 C.ar       1  LIG1  -0.0300
     17 N3        -12.8448    14.5165   -12.4010 N.pl3      1  LIG1   0.0200
     18 O2        -12.1921    15.4778   -12.0361 O.2        1  LIG1  -0.1400
     19 O3        -12.7783    13.4667   -11.7869 O.2        1  LIG1  -0.1400
     20 C11       -14.4594    13.5312   -14.0037 C.ar       1  LIG1  -0.0300
     21 C12       -15.2806    13.6300   -15.1108 C.ar       1  LIG1  -0.0600
     22 Cl1       -16.2103    12.2584   -15.6286 Cl         1  LIG1  -0.0200
     23 C13       -20.0964    18.1931   -19.6834 C.3        1  LIG1  -0.1900
     24 H4        -20.1840    18.8920   -18.8516 H          1  LIG1   0.1300
     25 C14       -19.4835    18.8334   -20.9154 C.3        1  LIG1  -0.1100
     26 C15       -20.4453    19.9718   -21.3119 C.3        1  LIG1  -0.1600
     27 C16       -21.8835    19.4888   -21.4568 C.3        1  LIG1   0.0500
     28 O4        -22.3311    18.7219   -20.3190 O.3        1  LIG1  -0.3400
     29 C17       -21.4719    17.6136   -20.1419 C.3        1  LIG1   0.0700
     30 H5        -21.3805    17.0268   -21.0559 H          1  LIG1   0.1000
     31 H6        -21.8679    14.8281   -18.1148 H          1  LIG1   0.0700
     32 H7        -23.0635    15.4990   -19.2499 H          1  LIG1   0.0700
     33 H8        -21.5296    14.8353   -19.8623 H          1  LIG1   0.0900
     34 H9        -21.2292    18.4522   -17.5845 H          1  LIG1   0.0700
     35 H10       -22.8024    17.6197   -17.5736 H          1  LIG1   0.0800
     36 H11       -21.3998    16.8822   -16.7630 H          1  LIG1   0.1000
     37 H12       -17.7016    15.2507   -18.9583 H          1  LIG1   0.1700
     38 H13       -17.2001    16.9449   -19.1726 H          1  LIG1   0.1700
     39 H14       -16.3540    14.1465   -17.4869 H          1  LIG1   0.4300
     40 H15       -14.6648    16.8518   -15.9408 H          1  LIG1   0.1700
     41 H16       -13.2129    16.6670   -13.9620 H          1  LIG1   0.1700
     42 H17       -14.3993    12.6012   -13.4579 H          1  LIG1   0.1800
     43 H18       -18.4988    19.2372   -20.6800 H          1  LIG1   0.0800
     44 H19       -19.4102    18.1041   -21.7221 H          1  LIG1   0.0800
     45 H20       -20.4086    20.7479   -20.5474 H          1  LIG1   0.0800
     46 H21       -20.1180    20.3968   -22.2607 H          1  LIG1   0.0900
     47 H22       -22.5351    20.3546   -21.5760 H          1  LIG1   0.1100
     48 H23       -21.9582    18.8691   -22.3504 H          1  LIG1   0.0600
@<TRIPOS>BOND
     1    1    2 1
     2    1   31 1
     3    1   32 1
     4    1   33 1
     5    2   29 1
     6    2    3 1
     7    2    4 1
     8    3   34 1
     9    3   35 1
    10    3   36 1
    11    4    5 1
    12    4    6 1
    13    4   23 1
    14    6    7 1
    15    6    8 1
    16    6    9 1
    17    9   10 1
    18    9   37 1
    19    9   38 1
    20   10   11 2
    21   10   12 am
    22   12   13 1
    23   12   39 1
    24   13   21 ar
    25   13   14 ar
    26   14   15 ar
    27   14   40 1
    28   15   16 ar
    29   15   41 1
    30   16   17 1
    31   16   20 ar
    32   17   18 2
    33   17   19 2
    34   20   21 ar
    35   20   42 1
    36   21   22 1
    37   23   24 1
    38   23   29 1
    39   23   25 1
    40   25   26 1
    41   25   43 1
    42   25   44 1
    43   26   27 1
    44   26   45 1
    45   26   46 1
    46   27   28 1
    47   27   47 1
    48   27   48 1
    49   28   29 1
    50   29   30 1
##########                 Name:     ZINC000008376557
##########          Protonation:                 none
##########               SMILES:   C[N@@H+](CCCNC1=C([N+](=O)[O-])N2C=CSC2=N1)CC1=CC=CC=C1
##########            Long Name:   NO_LONG_NAME
##########          FlexRecCode: 1
##########               Number:                 2347
##########   Ligand Source File: /nfs/db/export/3D/EG/ADMO/EGADMO.xamb.db2.gz
##########                 Rank:                    1
##########               Setnum:                  141
##########             Matchnum:                    1
##########                Cloud:                    1
##########        Electrostatic:           -36.266068
##########                 Gist:             0.000000
##########        Van der Waals:           -37.103817
##########  Ligand Polar Desolv:            17.662140
########## Ligand Apolar Desolv:            -7.916272
##########      Internal Energy:             0.000000
##########      Receptor Energy:             0.000000
########## Receptor Desolvation:             0.000000
########## Receptor Hydrophobic:             0.000000
##########         Total Energy:           -63.624020
##########        Ligand Charge:             1.000000
##########            Arbitrary:    +999.9990
##########        Ligand Energy:             0.000000

@<TRIPOS>MOLECULE
 ZINC000008376557      none
   44    46     0     0     0



@<TRIPOS>ATOM
      1 C1        -18.6286    16.1575   -20.2799 C.3        1  LIG1  -0.0600
      2 N1        -18.4226    16.3048   -18.8328 N.4        1  LIG1  -0.3800
      3 H1        -18.5994    15.4225   -18.3764 H          1  LIG1   0.4300
      4 C2        -17.0373    16.7205   -18.5753 C.3        1  LIG1   0.0000
      5 C3        -16.6700    16.4002   -17.1250 C.3        1  LIG1  -0.1700
      6 C4        -15.2273    16.8330   -16.8568 C.3        1  LIG1   0.1400
      7 N2        -14.8755    16.5263   -15.4681 N.pl3      1  LIG1  -0.7200
      8 C5        -14.9229    15.2012   -15.0084 C.2        1  LIG1   0.4100
      9 C6        -14.2924    14.7204   -13.9169 C.2        1  LIG1  -0.0600
     10 N3        -13.4264    15.4935   -12.9869 N.pl3      1  LIG1   0.0400
     11 O1        -13.2320    16.6802   -13.1803 O.2        1  LIG1  -0.1200
     12 O2        -12.9118    14.9397   -12.0319 O.2        1  LIG1  -0.1200
     13 N4        -14.6041    13.3626   -13.8219 N.pl3      1  LIG1  -0.3900
     14 C7        -14.3288    12.2912   -13.0034 C.2        1  LIG1   0.0300
     15 C8        -14.8599    11.1167   -13.2947 C.2        1  LIG1  -0.1800
     16 S1        -15.8164    11.3779   -14.7641 S.3        1  LIG1   0.2300
     17 C9        -15.4181    13.0988   -14.8790 C.2        1  LIG1   0.2200
     18 N5        -15.6080    14.1959   -15.5762 N.2        1  LIG1  -0.4700
     19 C10       -19.3443    17.3212   -18.3080 C.3        1  LIG1   0.0500
     20 C11       -20.7654    16.8948   -18.5722 C.ar       1  LIG1  -0.1600
     21 C12       -21.3896    17.2622   -19.7497 C.ar       1  LIG1  -0.1000
     22 C13       -22.6932    16.8710   -19.9920 C.ar       1  LIG1  -0.1100
     23 C14       -23.3723    16.1123   -19.0571 C.ar       1  LIG1  -0.0800
     24 C15       -22.7477    15.7442   -17.8801 C.ar       1  LIG1  -0.1100
     25 C16       -21.4428    16.1317   -17.6396 C.ar       1  LIG1  -0.0900
     26 H2        -18.4376    17.1105   -20.7730 H          1  LIG1   0.1300
     27 H3        -17.9446    15.4034   -20.6694 H          1  LIG1   0.1200
     28 H4        -19.6565    15.8492   -20.4709 H          1  LIG1   0.1200
     29 H5        -16.3664    16.1848   -19.2468 H          1  LIG1   0.1400
     30 H6        -16.9421    17.7928   -18.7458 H          1  LIG1   0.1400
     31 H7        -17.3410    16.9358   -16.4534 H          1  LIG1   0.1000
     32 H8        -16.7652    15.3277   -16.9545 H          1  LIG1   0.1000
     33 H9        -14.5563    16.2973   -17.5284 H          1  LIG1   0.0800
     34 H10       -15.1320    17.9054   -17.0273 H          1  LIG1   0.0800
     35 H11       -14.6100    17.2393   -14.8663 H          1  LIG1   0.4100
     36 H12       -13.6910    12.4080   -12.1397 H          1  LIG1   0.1900
     37 H13       -14.7368    10.1914   -12.7515 H          1  LIG1   0.2200
     38 H14       -19.1914    17.4305   -17.2343 H          1  LIG1   0.1400
     39 H15       -19.1533    18.2743   -18.8011 H          1  LIG1   0.1400
     40 H16       -20.8591    17.8549   -20.4800 H          1  LIG1   0.1300
     41 H17       -23.1811    17.1586   -20.9116 H          1  LIG1   0.1400
     42 H18       -24.3909    15.8073   -19.2462 H          1  LIG1   0.1400
     43 H19       -23.2785    15.1518   -17.1496 H          1  LIG1   0.1400
     44 H20       -20.9549    15.8441   -16.7200 H          1  LIG1   0.1300
@<TRIPOS>BOND
     1    1    2 1
     2    1   26 1
     3    1   27 1
     4    1   28 1
     5    2    3 1
     6    2    4 1
     7    2   19 1
     8    4    5 1
     9    4   29 1
    10    4   30 1
    11    5    6 1
    12    5   31 1
    13    5   32 1
    14    6    7 1
    15    6   33 1
    16    6   34 1
    17    7    8 1
    18    7   35 1
    19    8   18 1
    20    8    9 2
    21    9   10 1
    22    9   13 1
    23   10   11 2
    24   10   12 2
    25   13   17 1
    26   13   14 1
    27   14   15 2
    28   14   36 1
    29   15   16 1
    30   15   37 1
    31   16   17 1
    32   17   18 2
    33   19   20 1
    34   19   38 1
    35   19   39 1
    36   20   25 ar
    37   20   21 ar
    38   21   22 ar
    39   21   40 1
    40   22   23 ar
    41   22   41 1
    42   23   24 ar
    43   23   42 1
    44   24   25 ar
    45   24   43 1
    46   25   44 1
##########                 Name:     ZINC000317696652
##########          Protonation:                 none
##########               SMILES:   C[C@H](C(=O)NC1=CC=CC=C1C#N)[N@H+]1CC[C@H](C(C)(C)C)C1
##########            Long Name:   NO_LONG_NAME
##########          FlexRecCode: 1
##########               Number:                 2272
##########   Ligand Source File: /nfs/db/export/3D/CG/EDMO/CGEDMO.xbg.db2.gz
##########                 Rank:                    1
##########               Setnum:                   21
##########             Matchnum:                    1
##########                Cloud:                    1
##########        Electrostatic:           -39.036140
##########                 Gist:             0.000000
##########        Van der Waals:           -30.896294
##########  Ligand Polar Desolv:            12.477448
########## Ligand Apolar Desolv:            -5.551194
##########      Internal Energy:             0.000000
##########      Receptor Energy:             0.000000
########## Receptor Desolvation:             0.000000
########## Receptor Hydrophobic:             0.000000
##########         Total Energy:           -63.006180
##########        Ligand Charge:             1.000000
##########            Arbitrary:    +999.9990
##########        Ligand Energy:             0.000000

@<TRIPOS>MOLECULE
 ZINC000317696652      none
   48    49     0     0     0



@<TRIPOS>ATOM
      1 C1        -16.4174    16.6821   -18.9283 C.3        1  LIG1  -0.1800
      2 C2        -17.2945    17.0185   -17.7206 C.3        1  LIG1   0.0100
      3 H1        -17.1933    18.0772   -17.4815 H          1  LIG1   0.1700
      4 C3        -16.8588    16.1926   -16.5379 C.2        1  LIG1   0.5100
      5 O1        -16.9924    16.6263   -15.4132 O.2        1  LIG1  -0.5000
      6 N1        -16.3206    14.9719   -16.7298 N.am       1  LIG1  -0.6500
      7 C4        -15.9175    14.2079   -15.6355 C.ar       1  LIG1   0.1700
      8 C5        -16.4817    12.9605   -15.4105 C.ar       1  LIG1  -0.1200
      9 C6        -16.0811    12.2050   -14.3259 C.ar       1  LIG1  -0.0700
     10 C7        -15.1154    12.6840   -13.4565 C.ar       1  LIG1  -0.1200
     11 C8        -14.5436    13.9213   -13.6643 C.ar       1  LIG1  -0.0500
     12 C9        -14.9348    14.6942   -14.7596 C.ar       1  LIG1  -0.0400
     13 C10       -14.3450    15.9802   -14.9814 C.1        1  LIG1   0.2400
     14 N2        -13.8771    17.0003   -15.1572 N.1        1  LIG1  -0.3900
     15 N3        -18.6977    16.7197   -18.0363 N.4        1  LIG1  -0.3800
     16 H2        -18.8038    15.7414   -18.2594 H          1  LIG1   0.4300
     17 C11       -19.5689    17.0807   -16.8887 C.3        1  LIG1  -0.0100
     18 C12       -20.9632    17.2520   -17.5422 C.3        1  LIG1  -0.1400
     19 C13       -20.6297    17.9091   -18.9013 C.3        1  LIG1  -0.1000
     20 H3        -20.7540    18.9901   -18.8395 H          1  LIG1   0.1100
     21 C14       -21.5234    17.3347   -20.0023 C.3        1  LIG1  -0.0600
     22 C15       -22.9902    17.6069   -19.6625 C.3        1  LIG1  -0.1500
     23 C16       -21.1777    17.9973   -21.3372 C.3        1  LIG1  -0.1500
     24 C17       -21.2961    15.8253   -20.1081 C.3        1  LIG1  -0.1600
     25 C18       -19.1543    17.5537   -19.1691 C.3        1  LIG1  -0.0100
     26 H4        -16.5186    15.6235   -19.1673 H          1  LIG1   0.1100
     27 H5        -16.7323    17.2796   -19.7838 H          1  LIG1   0.0900
     28 H6        -15.3761    16.9037   -18.6941 H          1  LIG1   0.1000
     29 H7        -16.2137    14.6250   -17.6293 H          1  LIG1   0.4200
     30 H8        -17.2355    12.5799   -16.0840 H          1  LIG1   0.1500
     31 H9        -16.5238    11.2349   -14.1546 H          1  LIG1   0.1400
     32 H10       -14.8089    12.0856   -12.6113 H          1  LIG1   0.1400
     33 H11       -13.7912    14.2906   -12.9831 H          1  LIG1   0.1400
     34 H12       -19.5856    16.2784   -16.1510 H          1  LIG1   0.1500
     35 H13       -19.2394    18.0152   -16.4346 H          1  LIG1   0.1300
     36 H14       -21.4419    16.2838   -17.6890 H          1  LIG1   0.1100
     37 H15       -21.5930    17.9077   -16.9409 H          1  LIG1   0.1200
     38 H16       -23.6268    17.1976   -20.4469 H          1  LIG1   0.0600
     39 H17       -23.2364    17.1349   -18.7114 H          1  LIG1   0.0700
     40 H18       -23.1521    18.6821   -19.5872 H          1  LIG1   0.0600
     41 H19       -21.8143    17.5882   -22.1216 H          1  LIG1   0.0500
     42 H20       -21.3396    19.0726   -21.2618 H          1  LIG1   0.0700
     43 H21       -20.1327    17.8033   -21.5793 H          1  LIG1   0.0600
     44 H22       -21.9328    15.4160   -20.8925 H          1  LIG1   0.0600
     45 H23       -20.2511    15.6315   -20.3503 H          1  LIG1   0.0700
     46 H24       -21.5422    15.3531   -19.1571 H          1  LIG1   0.0500
     47 H25       -18.5571    18.4639   -19.2234 H          1  LIG1   0.1300
     48 H26       -19.0703    16.9951   -20.1013 H          1  LIG1   0.1400
@<TRIPOS>BOND
     1    1    2 1
     2    1   26 1
     3    1   27 1
     4    1   28 1
     5    2    3 1
     6    2    4 1
     7    2   15 1
     8    4    5 2
     9    4    6 am
    10    6    7 1
    11    6   29 1
    12    7   12 ar
    13    7    8 ar
    14    8    9 ar
    15    8   30 1
    16    9   10 ar
    17    9   31 1
    18   10   11 ar
    19   10   32 1
    20   11   12 ar
    21   11   33 1
    22   12   13 1
    23   13   14 3
    24   15   16 1
    25   15   25 1
    26   15   17 1
    27   17   18 1
    28   17   34 1
    29   17   35 1
    30   18   19 1
    31   18   36 1
    32   18   37 1
    33   19   20 1
    34   19   21 1
    35   19   25 1
    36   21   22 1
    37   21   23 1
    38   21   24 1
    39   22   38 1
    40   22   39 1
    41   22   40 1
    42   23   41 1
    43   23   42 1
    44   23   43 1
    45   24   44 1
    46   24   45 1
    47   24   46 1
    48   25   47 1
    49   25   48 1
##########                 Name:     ZINC000663379493
##########          Protonation:                 none
##########               SMILES:   O[C@@H](C[NH2+]CC1=CN=CC=C1C(F)(F)F)CC1=CC=CC(Cl)=C1
##########            Long Name:   NO_LONG_NAME
##########          FlexRecCode: 1
##########               Number:                 2292
##########   Ligand Source File: /nfs/db/export/3D/EG/ADRO/EGADRO.xcbb.db2.gz
##########                 Rank:                    1
##########               Setnum:                   53
##########             Matchnum:                    1
##########                Cloud:                    1
##########        Electrostatic:           -43.707214
##########                 Gist:             0.000000
##########        Van der Waals:           -31.467030
##########  Ligand Polar Desolv:            14.360322
########## Ligand Apolar Desolv:            -3.846140
##########      Internal Energy:             0.000000
##########      Receptor Energy:             0.000000
########## Receptor Desolvation:             0.000000
########## Receptor Hydrophobic:             0.000000
##########         Total Energy:           -64.660057
##########        Ligand Charge:             1.000000
##########            Arbitrary:    +999.9990
##########        Ligand Energy:             0.000000

@<TRIPOS>MOLECULE
 ZINC000663379493      none
   40    41     0     0     0



@<TRIPOS>ATOM
      1 O1        -17.4781    15.8796   -15.5497 O.3        1  LIG1  -0.5500
      2 C1        -16.5430    15.8049   -16.6276 C.3        1  LIG1   0.0900
      3 H1        -16.5854    14.8129   -17.0774 H          1  LIG1   0.1300
      4 C2        -16.8937    16.8578   -17.6809 C.3        1  LIG1  -0.0500
      5 N1        -18.2489    16.6086   -18.1901 N.4        1  LIG1  -0.5100
      6 H2        -18.2882    15.6904   -18.6063 H          1  LIG1   0.4300
      7 H3        -18.9090    16.6615   -17.4290 H          1  LIG1   0.4300
      8 C3        -18.5855    17.6197   -19.2014 C.3        1  LIG1   0.0300
      9 C4        -19.9758    17.3641   -19.7237 C.ar       1  LIG1  -0.1800
     10 C5        -20.7224    16.3076   -19.2381 C.ar       1  LIG1   0.1500
     11 N2        -21.9398    16.0778   -19.6900 N.ar       1  LIG1  -0.4500
     12 C6        -22.4912    16.8385   -20.6150 C.ar       1  LIG1   0.1500
     13 C7        -21.8044    17.9132   -21.1481 C.ar       1  LIG1  -0.1200
     14 C8        -20.5243    18.1895   -20.6937 C.ar       1  LIG1  -0.1200
     15 C9        -19.7424    19.3519   -21.2495 C.3        1  LIG1   0.5100
     16 F1        -18.4856    19.4038   -20.6373 F          1  LIG1  -0.1500
     17 F2        -19.5826    19.1889   -22.6297 F          1  LIG1  -0.1800
     18 F3        -20.4335    20.5418   -20.9973 F          1  LIG1  -0.1600
     19 C10       -15.1315    16.0644   -16.0973 C.3        1  LIG1  -0.1000
     20 C11       -14.7862    15.0272   -15.0599 C.ar       1  LIG1  -0.0800
     21 C12       -15.3328    13.7602   -15.1410 C.ar       1  LIG1  -0.1000
     22 C13       -15.0161    12.8080   -14.1899 C.ar       1  LIG1  -0.1000
     23 C14       -14.1533    13.1226   -13.1573 C.ar       1  LIG1  -0.1000
     24 C15       -13.6058    14.3908   -13.0756 C.ar       1  LIG1  -0.0300
     25 Cl1       -12.5213    14.7866   -11.7791 Cl         1  LIG1  -0.0600
     26 C16       -13.9185    15.3413   -14.0307 C.ar       1  LIG1  -0.1100
     27 H4        -18.3955    15.7250   -15.8134 H          1  LIG1   0.3900
     28 H5        -16.8511    17.8498   -17.2312 H          1  LIG1   0.1400
     29 H6        -16.1804    16.8008   -18.5032 H          1  LIG1   0.1500
     30 H7        -18.5430    18.6116   -18.7516 H          1  LIG1   0.1500
     31 H8        -17.8722    17.5626   -20.0236 H          1  LIG1   0.1600
     32 H9        -20.3039    15.6623   -18.4798 H          1  LIG1   0.1800
     33 H10       -23.4906    16.6193   -20.9605 H          1  LIG1   0.1900
     34 H11       -22.2612    18.5325   -21.9060 H          1  LIG1   0.1700
     35 H12       -14.4182    16.0074   -16.9196 H          1  LIG1   0.1000
     36 H13       -15.0890    17.0563   -15.6476 H          1  LIG1   0.0900
     37 H14       -16.0076    13.5141   -15.9474 H          1  LIG1   0.1300
     38 H15       -15.4435    11.8182   -14.2537 H          1  LIG1   0.1400
     39 H16       -13.9066    12.3790   -12.4140 H          1  LIG1   0.1400
     40 H17       -13.4916    16.3314   -13.9675 H          1  LIG1   0.1300
@<TRIPOS>BOND
     1    1    2 1
     2    1   27 1
     3    2    3 1
     4    2    4 1
     5    2   19 1
     6    4    5 1
     7    4   28 1
     8    4   29 1
     9    5    6 1
    10    5    7 1
    11    5    8 1
    12    8    9 1
    13    8   30 1
    14    8   31 1
    15    9   14 ar
    16    9   10 ar
    17   10   11 ar
    18   10   32 1
    19   11   12 ar
    20   12   13 ar
    21   12   33 1
    22   13   14 ar
    23   13   34 1
    24   14   15 1
    25   15   16 1
    26   15   17 1
    27   15   18 1
    28   19   20 1
    29   19   35 1
    30   19   36 1
    31   20   26 ar
    32   20   21 ar
    33   21   22 ar
    34   21   37 1
    35   22   23 ar
    36   22   38 1
    37   23   24 ar
    38   23   39 1
    39   24   25 1
    40   24   26 ar
    41   26   40 1
##########                 Name:     ZINC000611479831
##########          Protonation:                 none
##########               SMILES:   CCOC(=O)C1=NN(C2=CC=CC=C2)C=C1C[NH2+][C@H]1CCC[C@@H](O)C1
##########            Long Name:   NO_LONG_NAME
##########          FlexRecCode: 1
##########               Number:                10889
##########   Ligand Source File: /nfs/db/export/3D/EE/ADRO/EEADRO.xbat.db2.gz
##########                 Rank:                    1
##########               Setnum:                   21
##########             Matchnum:                    1
##########                Cloud:                    1
##########        Electrostatic:           -43.046505
##########                 Gist:             0.000000
##########        Van der Waals:           -32.353630
##########  Ligand Polar Desolv:            15.717439
########## Ligand Apolar Desolv:            -4.729478
##########      Internal Energy:             0.000000
##########      Receptor Energy:             0.000000
########## Receptor Desolvation:             0.000000
########## Receptor Hydrophobic:             0.000000
##########         Total Energy:           -64.412170
##########        Ligand Charge:             1.000000
##########            Arbitrary:    +999.9990
##########        Ligand Energy:             0.000000

@<TRIPOS>MOLECULE
 ZINC000611479831      none
   51    53     0     0     0



@<TRIPOS>ATOM
      1 C1        -12.6506    20.7732   -16.4609 C.3        1  LIG1  -0.1600
      2 C2        -14.0193    20.2362   -16.8845 C.3        1  LIG1   0.0600
      3 O1        -14.1207    18.8329   -16.5263 O.3        1  LIG1  -0.3300
      4 C3        -15.2729    18.2050   -16.8327 C.2        1  LIG1   0.5600
      5 O2        -16.1683    18.8136   -17.3840 O.2        1  LIG1  -0.5100
      6 C4        -15.4472    16.7787   -16.4985 C.2        1  LIG1   0.0200
      7 N1        -14.8987    16.1388   -15.4839 N.2        1  LIG1  -0.2000
      8 N2        -15.2626    14.9066   -15.4899 N.pl3      1  LIG1  -0.2100
      9 C5        -14.8628    13.9470   -14.5505 C.ar       1  LIG1   0.1000
     10 C6        -15.3147    12.6383   -14.6575 C.ar       1  LIG1  -0.1200
     11 C7        -14.9189    11.6946   -13.7300 C.ar       1  LIG1  -0.1000
     12 C8        -14.0733    12.0518   -12.6957 C.ar       1  LIG1  -0.1000
     13 C9        -13.6219    13.3543   -12.5863 C.ar       1  LIG1  -0.1000
     14 C10       -14.0093    14.3013   -13.5142 C.ar       1  LIG1  -0.0900
     15 C11       -16.0921    14.6700   -16.5397 C.2        1  LIG1   0.0400
     16 C12       -16.2391    15.8403   -17.2034 C.2        1  LIG1  -0.2200
     17 C13       -17.0647    16.0900   -18.4392 C.3        1  LIG1   0.0800
     18 N3        -18.4217    16.4947   -18.0480 N.4        1  LIG1  -0.5000
     19 H1        -18.8471    15.7607   -17.5019 H          1  LIG1   0.4300
     20 H2        -18.3753    17.3394   -17.4981 H          1  LIG1   0.4300
     21 C14       -19.2264    16.7382   -19.2526 C.3        1  LIG1   0.0300
     22 H3        -18.9958    15.9816   -20.0026 H          1  LIG1   0.1400
     23 C15       -20.7126    16.6666   -18.8961 C.3        1  LIG1  -0.1400
     24 C16       -21.5507    16.9201   -20.1508 C.3        1  LIG1  -0.1100
     25 C17       -21.2264    18.3072   -20.7091 C.3        1  LIG1  -0.1600
     26 C18       -19.7403    18.3788   -21.0655 C.3        1  LIG1   0.1200
     27 H4        -19.5096    17.6222   -21.8155 H          1  LIG1   0.0700
     28 O3        -19.4373    19.6743   -21.5870 O.3        1  LIG1  -0.5600
     29 C19       -18.9020    18.1252   -19.8109 C.3        1  LIG1  -0.1400
     30 H5        -12.5746    21.8268   -16.7298 H          1  LIG1   0.0700
     31 H6        -12.5354    20.6641   -15.3826 H          1  LIG1   0.0700
     32 H7        -11.8668    20.2111   -16.9687 H          1  LIG1   0.0900
     33 H8        -14.8030    20.7984   -16.3767 H          1  LIG1   0.0800
     34 H9        -14.1345    20.3453   -17.9630 H          1  LIG1   0.0800
     35 H10       -15.9754    12.3588   -15.4648 H          1  LIG1   0.1300
     36 H11       -15.2702    10.6768   -13.8123 H          1  LIG1   0.1400
     37 H12       -13.7651    11.3121   -11.9717 H          1  LIG1   0.1400
     38 H13       -12.9619    13.6304   -11.7772 H          1  LIG1   0.1400
     39 H14       -13.6560    15.3182   -13.4285 H          1  LIG1   0.1500
     40 H15       -16.5515    13.7264   -16.7941 H          1  LIG1   0.2000
     41 H16       -16.6050    16.8828   -19.0291 H          1  LIG1   0.1400
     42 H17       -17.1147    15.1775   -19.0332 H          1  LIG1   0.1500
     43 H18       -20.9436    15.6783   -18.4984 H          1  LIG1   0.0900
     44 H19       -20.9432    17.4231   -18.1461 H          1  LIG1   0.0900
     45 H20       -21.3201    16.1635   -20.9008 H          1  LIG1   0.0800
     46 H21       -22.6095    16.8691   -19.8968 H          1  LIG1   0.0900
     47 H22       -21.8235    18.4878   -21.6030 H          1  LIG1   0.0800
     48 H23       -21.4570    19.0638   -19.9591 H          1  LIG1   0.0800
     49 H24       -19.6183    20.3982   -20.9719 H          1  LIG1   0.3900
     50 H25       -19.1327    18.8818   -19.0609 H          1  LIG1   0.0900
     51 H26       -17.8432    18.1761   -20.0649 H          1  LIG1   0.0900
@<TRIPOS>BOND
     1    1    2 1
     2    1   30 1
     3    1   31 1
     4    1   32 1
     5    2    3 1
     6    2   33 1
     7    2   34 1
     8    3    4 1
     9    4    5 2
    10    4    6 1
    11    6   16 1
    12    6    7 2
    13    7    8 1
    14    8    9 1
    15    8   15 1
    16    9   14 ar
    17    9   10 ar
    18   10   11 ar
    19   10   35 1
    20   11   12 ar
    21   11   36 1
    22   12   13 ar
    23   12   37 1
    24   13   14 ar
    25   13   38 1
    26   14   39 1
    27   15   16 2
    28   15   40 1
    29   16   17 1
    30   17   18 1
    31   17   41 1
    32   17   42 1
    33   18   19 1
    34   18   20 1
    35   18   21 1
    36   21   22 1
    37   21   29 1
    38   21   23 1
    39   23   24 1
    40   23   43 1
    41   23   44 1
    42   24   25 1
    43   24   45 1
    44   24   46 1
    45   25   26 1
    46   25   47 1
    47   25   48 1
    48   26   27 1
    49   26   28 1
    50   26   29 1
    51   28   49 1
    52   29   50 1
    53   29   51 1
##########                 Name:     ZINC000290046491
##########          Protonation:                 none
##########               SMILES:   CC1=CC=CC=C1N1C=C(C[NH2+]C[C@H]2CCSC2)N=N1
##########            Long Name:   NO_LONG_NAME
##########          FlexRecCode: 1
##########               Number:                 1389
##########   Ligand Source File: /nfs/db/export/3D/CE/ADRO/CEADRO.xbxw.db2.gz
##########                 Rank:                    1
##########               Setnum:                   23
##########             Matchnum:                    1
##########                Cloud:                    1
##########        Electrostatic:           -44.527531
##########                 Gist:             0.000000
##########        Van der Waals:           -30.428362
##########  Ligand Polar Desolv:            17.693201
########## Ligand Apolar Desolv:            -5.537711
##########      Internal Energy:             0.000000
##########      Receptor Energy:             0.000000
########## Receptor Desolvation:             0.000000
########## Receptor Hydrophobic:             0.000000
##########         Total Energy:           -62.800404
##########        Ligand Charge:             1.000000
##########            Arbitrary:    +999.9990
##########        Ligand Energy:             0.000000

@<TRIPOS>MOLECULE
 ZINC000290046491      none
   41    43     0     0     0



@<TRIPOS>ATOM
      1 C1        -13.2984    15.2176   -13.0824 C.3        1  LIG1  -0.1200
      2 C2        -14.1158    13.9650   -13.2667 C.ar       1  LIG1  -0.0400
      3 C3        -13.9742    12.9114   -12.3853 C.ar       1  LIG1  -0.1000
      4 C4        -14.7244    11.7618   -12.5534 C.ar       1  LIG1  -0.0800
      5 C5        -15.6181    11.6637   -13.6037 C.ar       1  LIG1  -0.1100
      6 C6        -15.7638    12.7143   -14.4888 C.ar       1  LIG1  -0.0900
      7 C7        -15.0163    13.8715   -14.3193 C.ar       1  LIG1   0.0800
      8 N1        -15.1624    14.9399   -15.2160 N.pl3      1  LIG1  -0.2200
      9 C8        -16.0092    14.9791   -16.2810 C.2        1  LIG1   0.0000
     10 C9        -15.8226    16.1868   -16.8633 C.2        1  LIG1  -0.1100
     11 C10       -16.5281    16.7171   -18.0849 C.3        1  LIG1   0.1000
     12 N2        -17.9666    16.4388   -17.9789 N.4        1  LIG1  -0.5100
     13 H1        -18.1125    15.4427   -17.9121 H          1  LIG1   0.4300
     14 H2        -18.3365    16.8888   -17.1551 H          1  LIG1   0.4300
     15 C11       -18.6543    16.9556   -19.1697 C.3        1  LIG1   0.0000
     16 C12       -20.1526    16.6658   -19.0594 C.3        1  LIG1  -0.1200
     17 H3        -20.3126    15.5901   -18.9870 H          1  LIG1   0.1100
     18 C13       -20.7215    17.3578   -17.8085 C.3        1  LIG1  -0.1200
     19 C14       -22.2675    17.3068   -17.9288 C.3        1  LIG1  -0.0800
     20 S1        -22.5321    17.7098   -19.6990 S.3        1  LIG1  -0.2400
     21 C15       -20.8791    17.2149   -20.3047 C.3        1  LIG1  -0.1100
     22 N3        -14.8890    16.8172   -16.1418 N.2        1  LIG1  -0.2400
     23 N4        -14.5228    16.0563   -15.1719 N.2        1  LIG1  -0.0400
     24 H4        -12.6537    15.1059   -12.2107 H          1  LIG1   0.0900
     25 H5        -12.6859    15.3853   -13.9683 H          1  LIG1   0.0800
     26 H6        -13.9645    16.0678   -12.9351 H          1  LIG1   0.0600
     27 H7        -13.2766    12.9851   -11.5641 H          1  LIG1   0.1400
     28 H8        -14.6117    10.9389   -11.8630 H          1  LIG1   0.1400
     29 H9        -16.2026    10.7647   -13.7325 H          1  LIG1   0.1400
     30 H10       -16.4618    12.6369   -15.3094 H          1  LIG1   0.1300
     31 H11       -16.6913    14.2039   -16.5974 H          1  LIG1   0.2000
     32 H12       -16.3705    17.7931   -18.1571 H          1  LIG1   0.1500
     33 H13       -16.1286    16.2308   -18.9749 H          1  LIG1   0.1500
     34 H14       -18.4967    18.0317   -19.2420 H          1  LIG1   0.1400
     35 H15       -18.2548    16.4694   -20.0597 H          1  LIG1   0.1400
     36 H16       -20.4003    16.8285   -16.9115 H          1  LIG1   0.1000
     37 H17       -20.3851    18.3939   -17.7706 H          1  LIG1   0.0900
     38 H18       -22.6421    16.3097   -17.6976 H          1  LIG1   0.1000
     39 H19       -22.7316    18.0554   -17.2869 H          1  LIG1   0.1200
     40 H20       -20.3482    18.0775   -20.7074 H          1  LIG1   0.1000
     41 H21       -20.9694    16.4357   -21.0615 H          1  LIG1   0.1000
@<TRIPOS>BOND
     1    1    2 1
     2    1   24 1
     3    1   25 1
     4    1   26 1
     5    2    7 ar
     6    2    3 ar
     7    3    4 ar
     8    3   27 1
     9    4    5 ar
    10    4   28 1
    11    5    6 ar
    12    5   29 1
    13    6    7 ar
    14    6   30 1
    15    7    8 1
    16    8   23 1
    17    8    9 1
    18    9   10 2
    19    9   31 1
    20   10   11 1
    21   10   22 1
    22   11   12 1
    23   11   32 1
    24   11   33 1
    25   12   13 1
    26   12   14 1
    27   12   15 1
    28   15   16 1
    29   15   34 1
    30   15   35 1
    31   16   17 1
    32   16   21 1
    33   16   18 1
    34   18   19 1
    35   18   36 1
    36   18   37 1
    37   19   20 1
    38   19   38 1
    39   19   39 1
    40   20   21 1
    41   21   40 1
    42   21   41 1
    43   22   23 2
##########                 Name:     ZINC000531850820
##########          Protonation:                 none
##########               SMILES:   CC(C)[N@H+]1C[C@@H](C)[C@H](NC(=O)C2=CN(C3=CC=CN=C3)N=C2)C1
##########            Long Name:   NO_LONG_NAME
##########          FlexRecCode: 1
##########               Number:                 4564
##########   Ligand Source File: /nfs/db/export/3D/DD/ADMO/DDADMO.xfw.db2.gz
##########                 Rank:                    1
##########               Setnum:                   50
##########             Matchnum:                    1
##########                Cloud:                    1
##########        Electrostatic:           -42.081303
##########                 Gist:             0.000000
##########        Van der Waals:           -34.797733
##########  Ligand Polar Desolv:            17.646578
########## Ligand Apolar Desolv:            -3.743998
##########      Internal Energy:             0.000000
##########      Receptor Energy:             0.000000
########## Receptor Desolvation:             0.000000
########## Receptor Hydrophobic:             0.000000
##########         Total Energy:           -62.976456
##########        Ligand Charge:             1.000000
##########            Arbitrary:    +999.9990
##########        Ligand Energy:             0.000000

@<TRIPOS>MOLECULE
 ZINC000531850820      none
   47    49     0     0     0



@<TRIPOS>ATOM
      1 C1        -21.4391    15.3173   -19.7501 C.3        1  LIG1  -0.1800
      2 C2        -21.1243    16.6910   -19.1542 C.3        1  LIG1   0.0300
      3 C3        -22.1248    17.0051   -18.0401 C.3        1  LIG1  -0.1800
      4 N1        -19.7383    16.6849   -18.5926 N.4        1  LIG1  -0.3900
      5 H1        -19.7088    15.9330   -17.8387 H          1  LIG1   0.4200
      6 C4        -18.6577    16.3338   -19.6001 C.3        1  LIG1   0.0000
      7 C5        -17.6393    17.4716   -19.5213 C.3        1  LIG1  -0.1200
      8 H2        -16.6085    17.0673   -19.6153 H          1  LIG1   0.1100
      9 C6        -17.8744    18.5087   -20.6211 C.3        1  LIG1  -0.1500
     10 C7        -17.8451    18.0617   -18.1251 C.3        1  LIG1   0.1400
     11 H3        -17.5211    19.1136   -18.1145 H          1  LIG1   0.1300
     12 N2        -17.1379    17.3068   -17.1171 N.am       1  LIG1  -0.7300
     13 C8        -15.8879    17.6638   -16.7613 C.2        1  LIG1   0.6100
     14 O1        -15.3555    18.6214   -17.2889 O.2        1  LIG1  -0.5300
     15 C9        -15.1661    16.8934   -15.7324 C.2        1  LIG1  -0.3000
     16 C10       -15.3571    15.5619   -15.4211 C.2        1  LIG1   0.1400
     17 N3        -14.5006    15.2539   -14.4304 N.pl3      1  LIG1  -0.3000
     18 C11       -14.3704    13.9985   -13.8205 C.ar       1  LIG1   0.0800
     19 C12       -15.1621    12.9291   -14.2299 C.ar       1  LIG1  -0.0600
     20 C13       -14.9972    11.7078   -13.5969 C.ar       1  LIG1  -0.1500
     21 C14       -14.0596    11.5916   -12.5877 C.ar       1  LIG1   0.1000
     22 N4        -13.3250    12.6246   -12.2233 N.ar       1  LIG1  -0.4500
     23 C15       -13.4462    13.8020   -12.8032 C.ar       1  LIG1   0.1000
     24 N5        -13.7617    16.3988   -14.1118 N.2        1  LIG1  -0.2800
     25 C16       -14.1449    17.3781   -14.8840 C.2        1  LIG1   0.0900
     26 C17       -19.3478    17.9832   -17.9182 C.3        1  LIG1  -0.0200
     27 H4        -20.7263    15.0935   -20.5437 H          1  LIG1   0.1100
     28 H5        -21.3660    14.5582   -18.9713 H          1  LIG1   0.0800
     29 H6        -22.4492    15.3216   -20.1594 H          1  LIG1   0.0800
     30 H7        -21.1974    17.4502   -19.9329 H          1  LIG1   0.1400
     31 H8        -21.9005    17.9837   -17.6158 H          1  LIG1   0.0800
     32 H9        -23.1349    17.0097   -18.4496 H          1  LIG1   0.0800
     33 H10       -22.0517    16.2460   -17.2615 H          1  LIG1   0.1100
     34 H11       -18.2060    15.3708   -19.3286 H          1  LIG1   0.1400
     35 H12       -19.1029    16.2615   -20.6010 H          1  LIG1   0.1400
     36 H13       -17.1332    19.3033   -20.5357 H          1  LIG1   0.0700
     37 H14       -17.7841    18.0307   -21.5965 H          1  LIG1   0.0800
     38 H15       -18.8737    18.9311   -20.5146 H          1  LIG1   0.0800
     39 H16       -17.5625    16.5429   -16.6963 H          1  LIG1   0.4100
     40 H17       -16.0640    14.8913   -15.8870 H          1  LIG1   0.2000
     41 H18       -15.8874    13.0486   -15.0212 H          1  LIG1   0.1500
     42 H19       -15.5944    10.8563   -13.8882 H          1  LIG1   0.1500
     43 H20       -13.9270    10.6421   -12.0907 H          1  LIG1   0.1700
     44 H21       -12.8269    14.6246   -12.4773 H          1  LIG1   0.1600
     45 H22       -13.7552    18.3852   -14.8720 H          1  LIG1   0.2000
     46 H23       -19.8512    18.7974   -18.4098 H          1  LIG1   0.1400
     47 H24       -19.5941    17.9246   -16.8725 H          1  LIG1   0.1400
@<TRIPOS>BOND
     1    1    2 1
     2    1   27 1
     3    1   28 1
     4    1   29 1
     5    2    3 1
     6    2    4 1
     7    2   30 1
     8    3   31 1
     9    3   32 1
    10    3   33 1
    11    4    5 1
    12    4   26 1
    13    4    6 1
    14    6    7 1
    15    6   34 1
    16    6   35 1
    17    7    8 1
    18    7    9 1
    19    7   10 1
    20    9   36 1
    21    9   37 1
    22    9   38 1
    23   10   11 1
    24   10   12 1
    25   10   26 1
    26   12   13 am
    27   12   39 1
    28   13   14 2
    29   13   15 1
    30   15   25 1
    31   15   16 2
    32   16   17 1
    33   16   40 1
    34   17   18 1
    35   17   24 1
    36   18   23 ar
    37   18   19 ar
    38   19   20 ar
    39   19   41 1
    40   20   21 ar
    41   20   42 1
    42   21   22 ar
    43   21   43 1
    44   22   23 ar
    45   23   44 1
    46   24   25 2
    47   25   45 1
    48   26   46 1
    49   26   47 1
##########                 Name:     ZINC000106963515
##########          Protonation:                 none
##########               SMILES:   CC1=CC=C(NC(=O)C(=O)N[C@@H]2CC[N@H+](C3CCCC3)C2)C=C1Cl
##########            Long Name:   NO_LONG_NAME
##########          FlexRecCode: 1
##########               Number:                14671
##########   Ligand Source File: /nfs/db/export/3D/EF/ADMO/EFADMO.xbvo.db2.gz
##########                 Rank:                    1
##########               Setnum:                    7
##########             Matchnum:                    1
##########                Cloud:                    1
##########        Electrostatic:           -42.461838
##########                 Gist:             0.000000
##########        Van der Waals:           -32.933319
##########  Ligand Polar Desolv:            15.280298
########## Ligand Apolar Desolv:            -3.600859
##########      Internal Energy:             0.000000
##########      Receptor Energy:             0.000000
########## Receptor Desolvation:             0.000000
########## Receptor Hydrophobic:             0.000000
##########         Total Energy:           -63.715717
##########        Ligand Charge:             1.000000
##########            Arbitrary:    +999.9990
##########        Ligand Energy:             0.000000

@<TRIPOS>MOLECULE
 ZINC000106963515      none
   49    51     0     0     0



@<TRIPOS>ATOM
      1 C1         -9.4155    23.9400   -15.1625 C.3        1  LIG1  -0.1200
      2 C2        -10.4119    22.8147   -15.2716 C.ar       1  LIG1  -0.0800
      3 C3        -10.0447    21.5310   -14.9129 C.ar       1  LIG1  -0.0900
      4 C4        -10.9552    20.4972   -15.0112 C.ar       1  LIG1  -0.1200
      5 C5        -12.2419    20.7477   -15.4710 C.ar       1  LIG1   0.1300
      6 N1        -13.1653    19.7039   -15.5709 N.am       1  LIG1  -0.6300
      7 C6        -14.1304    19.7455   -16.5109 C.2        1  LIG1   0.5100
      8 O1        -14.1973    20.6898   -17.2706 O.2        1  LIG1  -0.4900
      9 C7        -15.1174    18.6298   -16.6177 C.2        1  LIG1   0.5200
     10 O2        -15.8344    18.3616   -15.6759 O.2        1  LIG1  -0.5000
     11 N2        -15.2119    17.9206   -17.7600 N.am       1  LIG1  -0.7000
     12 C8        -16.1801    16.8261   -17.8647 C.3        1  LIG1   0.1300
     13 H1        -15.9833    16.0604   -17.1144 H          1  LIG1   0.1300
     14 C9        -16.1796    16.2184   -19.2922 C.3        1  LIG1  -0.1600
     15 C10       -17.6039    15.6391   -19.4238 C.3        1  LIG1  -0.0100
     16 N3        -18.4565    16.3514   -18.4543 N.4        1  LIG1  -0.3800
     17 H2        -18.8339    15.6948   -17.7876 H          1  LIG1   0.4300
     18 C11       -19.5535    17.0248   -19.1621 C.3        1  LIG1   0.0200
     19 C12       -20.4945    15.9845   -19.8186 C.3        1  LIG1  -0.1400
     20 C13       -21.8244    16.7662   -19.9577 C.3        1  LIG1  -0.1200
     21 C14       -21.9022    17.6125   -18.6703 C.3        1  LIG1  -0.1300
     22 C15       -20.4584    17.7769   -18.1643 C.3        1  LIG1  -0.1400
     23 C16       -17.6311    17.3559   -17.7496 C.3        1  LIG1  -0.0200
     24 C17       -12.6089    22.0385   -15.8308 C.ar       1  LIG1  -0.1100
     25 C18       -11.6947    23.0695   -15.7253 C.ar       1  LIG1  -0.0200
     26 Cl1       -12.1515    24.6830   -16.1739 Cl         1  LIG1  -0.0500
     27 H3         -8.4676    23.5513   -14.7905 H          1  LIG1   0.0800
     28 H4         -9.2640    24.3878   -16.1447 H          1  LIG1   0.0800
     29 H5         -9.7941    24.6950   -14.4735 H          1  LIG1   0.0800
     30 H6         -9.0441    21.3363   -14.5559 H          1  LIG1   0.1400
     31 H7        -10.6671    19.4947   -14.7311 H          1  LIG1   0.1400
     32 H8        -13.1119    18.9493   -14.9638 H          1  LIG1   0.4300
     33 H9        -14.6389    18.1349   -18.5126 H          1  LIG1   0.4200
     34 H10       -16.0077    16.9922   -20.0403 H          1  LIG1   0.1100
     35 H11       -15.4331    15.4285   -19.3745 H          1  LIG1   0.1200
     36 H12       -17.9777    15.8002   -20.4349 H          1  LIG1   0.1400
     37 H13       -17.5932    14.5734   -19.1955 H          1  LIG1   0.1400
     38 H14       -19.1585    17.7112   -19.9110 H          1  LIG1   0.1400
     39 H15       -20.1178    15.6860   -20.7969 H          1  LIG1   0.1000
     40 H16       -20.6224    15.1166   -19.1716 H          1  LIG1   0.0900
     41 H17       -21.7980    17.4103   -20.8367 H          1  LIG1   0.0800
     42 H18       -22.6675    16.0777   -20.0134 H          1  LIG1   0.0900
     43 H19       -22.3341    18.5886   -18.8907 H          1  LIG1   0.0800
     44 H20       -22.5041    17.0979   -17.9211 H          1  LIG1   0.0800
     45 H21       -20.3595    17.3422   -17.1696 H          1  LIG1   0.0800
     46 H22       -20.1895    18.8329   -18.1392 H          1  LIG1   0.1000
     47 H23       -17.9290    17.4254   -16.7034 H          1  LIG1   0.1500
     48 H24       -17.7191    18.3276   -18.2355 H          1  LIG1   0.1400
     49 H25       -13.6082    22.2366   -16.1890 H          1  LIG1   0.1400
@<TRIPOS>BOND
     1    1    2 1
     2    1   27 1
     3    1   28 1
     4    1   29 1
     5    2   25 ar
     6    2    3 ar
     7    3    4 ar
     8    3   30 1
     9    4    5 ar
    10    4   31 1
    11    5    6 1
    12    5   24 ar
    13    6    7 am
    14    6   32 1
    15    7    8 2
    16    7    9 1
    17    9   10 2
    18    9   11 am
    19   11   12 1
    20   11   33 1
    21   12   13 1
    22   12   23 1
    23   12   14 1
    24   14   15 1
    25   14   34 1
    26   14   35 1
    27   15   16 1
    28   15   36 1
    29   15   37 1
    30   16   17 1
    31   16   18 1
    32   16   23 1
    33   18   22 1
    34   18   19 1
    35   18   38 1
    36   19   20 1
    37   19   39 1
    38   19   40 1
    39   20   21 1
    40   20   41 1
    41   20   42 1
    42   21   22 1
    43   21   43 1
    44   21   44 1
    45   22   45 1
    46   22   46 1
    47   23   47 1
    48   23   48 1
    49   24   25 ar
    50   24   49 1
    51   25   26 1
##########                 Name:     ZINC000511462978
##########          Protonation:                 none
##########               SMILES:   CC1=C([C@@H](CO)[NH2+]C2CC(C3=CC=CC=C3Cl)C2)SC=C1
##########            Long Name:   NO_LONG_NAME
##########          FlexRecCode: 1
##########               Number:                 3877
##########   Ligand Source File: /nfs/db/export/3D/DI/ADRO/DIADRO.xdl.db2.gz
##########                 Rank:                    1
##########               Setnum:                  153
##########             Matchnum:                    1
##########                Cloud:                    1
##########        Electrostatic:           -42.346760
##########                 Gist:             0.000000
##########        Van der Waals:           -29.261515
##########  Ligand Polar Desolv:            12.922685
########## Ligand Apolar Desolv:            -4.921115
##########      Internal Energy:             0.000000
##########      Receptor Energy:             0.000000
########## Receptor Desolvation:             0.000000
########## Receptor Hydrophobic:             0.000000
##########         Total Energy:           -63.606705
##########        Ligand Charge:             1.000000
##########            Arbitrary:    +999.9990
##########        Ligand Energy:             0.000000

@<TRIPOS>MOLECULE
 ZINC000511462978      none
   42    44     0     0     0



@<TRIPOS>ATOM
      1 C1        -20.9347    19.0947   -20.5691 C.3        1  LIG1  -0.1100
      2 C2        -21.3227    17.7234   -20.0790 C.2        1  LIG1  -0.0300
      3 C3        -20.5836    17.0381   -19.2054 C.2        1  LIG1  -0.2800
      4 C4        -19.2912    17.5174   -18.5963 C.3        1  LIG1   0.1200
      5 H1        -18.7830    18.1799   -19.2969 H          1  LIG1   0.1600
      6 C5        -19.5881    18.2757   -17.3010 C.3        1  LIG1   0.0500
      7 O1        -18.4758    19.1102   -16.9719 O.3        1  LIG1  -0.5700
      8 N1        -18.4310    16.3635   -18.3020 N.4        1  LIG1  -0.5000
      9 H2        -18.9014    15.7501   -17.6535 H          1  LIG1   0.4300
     10 H3        -18.2351    15.8634   -19.1561 H          1  LIG1   0.4300
     11 C6        -17.1712    16.8306   -17.7081 C.3        1  LIG1  -0.0100
     12 C7        -17.1023    16.6434   -16.1832 C.3        1  LIG1  -0.1400
     13 C8        -15.6351    16.2268   -16.3797 C.3        1  LIG1  -0.0600
     14 C9        -15.2129    15.0736   -15.5063 C.ar       1  LIG1  -0.0800
     15 C10       -15.8572    13.8555   -15.6107 C.ar       1  LIG1  -0.1100
     16 C11       -15.4700    12.7974   -14.8095 C.ar       1  LIG1  -0.1100
     17 C12       -14.4386    12.9570   -13.9037 C.ar       1  LIG1  -0.1000
     18 C13       -13.7933    14.1753   -13.7978 C.ar       1  LIG1  -0.1000
     19 C14       -14.1762    15.2326   -14.6036 C.ar       1  LIG1  -0.0300
     20 Cl1       -13.3665    16.7624   -14.4718 Cl         1  LIG1  -0.0600
     21 C15       -16.0272    15.8077   -17.8064 C.3        1  LIG1  -0.1400
     22 S1        -21.3486    15.4897   -18.8724 S.3        1  LIG1   0.1500
     23 C16       -22.6680    15.8715   -19.9709 C.2        1  LIG1  -0.1700
     24 C17       -22.4759    17.0821   -20.4970 C.2        1  LIG1  -0.1500
     25 H4        -19.9944    19.3935   -20.1058 H          1  LIG1   0.0800
     26 H5        -20.8153    19.0731   -21.6523 H          1  LIG1   0.0700
     27 H6        -21.7137    19.8094   -20.3035 H          1  LIG1   0.0800
     28 H7        -20.4770    18.8918   -17.4363 H          1  LIG1   0.0800
     29 H8        -19.7591    17.5632   -16.4941 H          1  LIG1   0.0900
     30 H9        -18.2657    19.7699   -17.6471 H          1  LIG1   0.4100
     31 H10       -16.8923    17.8309   -18.0395 H          1  LIG1   0.1700
     32 H11       -17.2216    17.5711   -15.6236 H          1  LIG1   0.1100
     33 H12       -17.7386    15.8397   -15.8129 H          1  LIG1   0.1100
     34 H13       -14.9357    17.0621   -16.3453 H          1  LIG1   0.1200
     35 H14       -16.6636    13.7302   -16.3180 H          1  LIG1   0.1300
     36 H15       -15.9738    11.8456   -14.8914 H          1  LIG1   0.1300
     37 H16       -14.1371    12.1306   -13.2770 H          1  LIG1   0.1400
     38 H17       -12.9876    14.3001   -13.0898 H          1  LIG1   0.1400
     39 H18       -16.3695    14.7755   -17.8797 H          1  LIG1   0.1100
     40 H19       -15.2785    16.0608   -18.5571 H          1  LIG1   0.1100
     41 H20       -23.5077    15.2264   -20.1833 H          1  LIG1   0.1800
     42 H21       -23.1640    17.5250   -21.2019 H          1  LIG1   0.1500
@<TRIPOS>BOND
     1    1    2 1
     2    1   25 1
     3    1   26 1
     4    1   27 1
     5    2   24 1
     6    2    3 2
     7    3    4 1
     8    3   22 1
     9    4    5 1
    10    4    6 1
    11    4    8 1
    12    6    7 1
    13    6   28 1
    14    6   29 1
    15    7   30 1
    16    8    9 1
    17    8   10 1
    18    8   11 1
    19   11   21 1
    20   11   12 1
    21   11   31 1
    22   12   13 1
    23   12   32 1
    24   12   33 1
    25   13   14 1
    26   13   21 1
    27   13   34 1
    28   14   19 ar
    29   14   15 ar
    30   15   16 ar
    31   15   35 1
    32   16   17 ar
    33   16   36 1
    34   17   18 ar
    35   17   37 1
    36   18   19 ar
    37   18   38 1
    38   19   20 1
    39   21   39 1
    40   21   40 1
    41   22   23 1
    42   23   24 2
    43   23   41 1
    44   24   42 1
##########                 Name:     ZINC000543238607
##########          Protonation:                 none
##########               SMILES:   O[C@@H](CCC1=CC=CC=C1)C[NH2+]CC1=CC=CC(Cl)=C1F
##########            Long Name:   NO_LONG_NAME
##########          FlexRecCode: 1
##########               Number:                 8784
##########   Ligand Source File: /nfs/db/export/3D/DH/ADRO/DHADRO.xaw.db2.gz
##########                 Rank:                    1
##########               Setnum:                  222
##########             Matchnum:                    1
##########                Cloud:                    1
##########        Electrostatic:           -51.670807
##########                 Gist:             0.000000
##########        Van der Waals:           -27.022549
##########  Ligand Polar Desolv:            19.548296
########## Ligand Apolar Desolv:            -4.457712
##########      Internal Energy:             0.000000
##########      Receptor Energy:             0.000000
########## Receptor Desolvation:             0.000000
########## Receptor Hydrophobic:             0.000000
##########         Total Energy:           -63.602776
##########        Ligand Charge:             1.000000
##########            Arbitrary:    +999.9990
##########        Ligand Energy:             0.000000

@<TRIPOS>MOLECULE
 ZINC000543238607      none
   41    42     0     0     0



@<TRIPOS>ATOM
      1 O1        -19.1743    16.2642   -18.9179 O.3        1  LIG1  -0.5500
      2 C1        -17.7936    16.4544   -19.2334 C.3        1  LIG1   0.0800
      3 H1        -17.4236    15.5881   -19.7819 H          1  LIG1   0.1200
      4 C2        -17.6352    17.7090   -20.0945 C.3        1  LIG1  -0.1400
      5 C3        -18.4360    17.5444   -21.3877 C.3        1  LIG1  -0.0700
      6 C4        -18.2801    18.7803   -22.2358 C.ar       1  LIG1  -0.1000
      7 C5        -19.1623    19.8346   -22.0900 C.ar       1  LIG1  -0.1200
      8 C6        -19.0193    20.9682   -22.8679 C.ar       1  LIG1  -0.1200
      9 C7        -17.9938    21.0478   -23.7914 C.ar       1  LIG1  -0.1200
     10 C8        -17.1110    19.9941   -23.9367 C.ar       1  LIG1  -0.1200
     11 C9        -17.2514    18.8621   -23.1557 C.ar       1  LIG1  -0.1200
     12 C10       -16.9928    16.6189   -17.9401 C.3        1  LIG1  -0.0500
     13 N1        -16.7414    15.2981   -17.3482 N.4        1  LIG1  -0.5100
     14 H2        -17.6212    14.8481   -17.1442 H          1  LIG1   0.4300
     15 H3        -16.2172    14.7324   -17.9988 H          1  LIG1   0.4300
     16 C11       -15.9726    15.4561   -16.1066 C.3        1  LIG1   0.0500
     17 C12       -15.7147    14.1012   -15.4995 C.ar       1  LIG1  -0.1900
     18 C13       -16.1834    12.9624   -16.1265 C.ar       1  LIG1  -0.0600
     19 C14       -15.9468    11.7187   -15.5706 C.ar       1  LIG1  -0.1100
     20 C15       -15.2416    11.6124   -14.3866 C.ar       1  LIG1  -0.0500
     21 C16       -14.7717    12.7506   -13.7567 C.ar       1  LIG1  -0.0700
     22 Cl1       -13.8863    12.6174   -12.2693 Cl         1  LIG1  -0.0200
     23 C17       -15.0032    13.9967   -14.3165 C.ar       1  LIG1   0.1300
     24 F1        -14.5449    15.1095   -13.7026 F          1  LIG1  -0.1200
     25 H4        -19.3494    15.4849   -18.3727 H          1  LIG1   0.3900
     26 H5        -18.0052    18.5753   -19.5458 H          1  LIG1   0.0800
     27 H6        -16.5820    17.8541   -20.3350 H          1  LIG1   0.0900
     28 H7        -18.0661    16.6783   -21.9364 H          1  LIG1   0.0800
     29 H8        -19.4891    17.3994   -21.1471 H          1  LIG1   0.0800
     30 H9        -19.9635    19.7723   -21.3684 H          1  LIG1   0.1200
     31 H10       -19.7089    21.7915   -22.7544 H          1  LIG1   0.1200
     32 H11       -17.8825    21.9333   -24.3997 H          1  LIG1   0.1300
     33 H12       -16.3101    20.0562   -24.6585 H          1  LIG1   0.1200
     34 H13       -16.5618    18.0388   -23.2691 H          1  LIG1   0.1200
     35 H14       -16.0424    17.1052   -18.1605 H          1  LIG1   0.1400
     36 H15       -17.5592    17.2301   -17.2373 H          1  LIG1   0.1400
     37 H16       -15.0223    15.9424   -16.3270 H          1  LIG1   0.1400
     38 H17       -16.5389    16.0673   -15.4038 H          1  LIG1   0.1500
     39 H18       -16.7351    13.0439   -17.0513 H          1  LIG1   0.1500
     40 H19       -16.3137    10.8296   -16.0617 H          1  LIG1   0.1600
     41 H20       -15.0578    10.6404   -13.9531 H          1  LIG1   0.1600
@<TRIPOS>BOND
     1    1    2 1
     2    1   25 1
     3    2    3 1
     4    2    4 1
     5    2   12 1
     6    4    5 1
     7    4   26 1
     8    4   27 1
     9    5    6 1
    10    5   28 1
    11    5   29 1
    12    6   11 ar
    13    6    7 ar
    14    7    8 ar
    15    7   30 1
    16    8    9 ar
    17    8   31 1
    18    9   10 ar
    19    9   32 1
    20   10   11 ar
    21   10   33 1
    22   11   34 1
    23   12   13 1
    24   12   35 1
    25   12   36 1
    26   13   14 1
    27   13   15 1
    28   13   16 1
    29   16   17 1
    30   16   37 1
    31   16   38 1
    32   17   23 ar
    33   17   18 ar
    34   18   19 ar
    35   18   39 1
    36   19   20 ar
    37   19   40 1
    38   20   21 ar
    39   20   41 1
    40   21   22 1
    41   21   23 ar
    42   23   24 1
##########                 Name:     ZINC000638034158
##########          Protonation:                 none
##########               SMILES:   CC[NH2+][C@H](C)C(=O)NC1=CC=C(Br)C=C1OCC
##########            Long Name:   NO_LONG_NAME
##########          FlexRecCode: 1
##########               Number:                 8411
##########   Ligand Source File: /nfs/db/export/3D/DF/ADRO/DFADRO.xajw.db2.gz
##########                 Rank:                    1
##########               Setnum:                   89
##########             Matchnum:                    1
##########                Cloud:                    1
##########        Electrostatic:           -46.360115
##########                 Gist:             0.000000
##########        Van der Waals:           -26.512354
##########  Ligand Polar Desolv:            13.170059
########## Ligand Apolar Desolv:            -3.526200
##########      Internal Energy:             0.000000
##########      Receptor Energy:             0.000000
########## Receptor Desolvation:             0.000000
########## Receptor Hydrophobic:             0.000000
##########         Total Energy:           -63.228607
##########        Ligand Charge:             1.000000
##########            Arbitrary:    +999.9990
##########        Ligand Energy:             0.000000

@<TRIPOS>MOLECULE
 ZINC000638034158      none
   38    38     0     0     0



@<TRIPOS>ATOM
      1 C1        -21.0699    16.5362   -18.5396 C.3        1  LIG1  -0.1900
      2 C2        -19.6817    17.0832   -18.8777 C.3        1  LIG1  -0.0100
      3 N1        -18.6875    16.4883   -17.9745 N.4        1  LIG1  -0.5000
      4 H1        -18.9177    16.7218   -17.0204 H          1  LIG1   0.4400
      5 H2        -18.6900    15.4854   -18.0854 H          1  LIG1   0.4300
      6 C3        -17.3547    17.0136   -18.2993 C.3        1  LIG1   0.0100
      7 H3        -17.4288    18.0769   -18.5275 H          1  LIG1   0.1700
      8 C4        -16.7950    16.2691   -19.5133 C.3        1  LIG1  -0.1800
      9 C5        -16.4359    16.8154   -17.1213 C.2        1  LIG1   0.5000
     10 O1        -15.9155    17.7738   -16.5902 O.2        1  LIG1  -0.5100
     11 N2        -16.1924    15.5735   -16.6579 N.am       1  LIG1  -0.6300
     12 C6        -15.3379    15.3893   -15.5623 C.ar       1  LIG1   0.1000
     13 C7        -14.3009    16.2807   -15.3322 C.ar       1  LIG1  -0.0700
     14 C8        -13.4591    16.0973   -14.2511 C.ar       1  LIG1  -0.1100
     15 C9        -13.6480    15.0256   -13.3973 C.ar       1  LIG1  -0.0500
     16 Br1       -12.4923    14.7806   -11.9208 Br         1  LIG1  -0.0200
     17 C10       -14.6810    14.1326   -13.6207 C.ar       1  LIG1  -0.1700
     18 C11       -15.5318    14.3133   -14.6986 C.ar       1  LIG1   0.1300
     19 O2        -16.5477    13.4368   -14.9193 O.3        1  LIG1  -0.3200
     20 C12       -16.1905    12.0692   -15.1296 C.3        1  LIG1   0.0500
     21 C13       -16.6748    11.6220   -16.5103 C.3        1  LIG1  -0.1500
     22 H4        -21.8076    16.9777   -19.2097 H          1  LIG1   0.0800
     23 H5        -21.0725    15.4528   -18.6594 H          1  LIG1   0.1100
     24 H6        -21.3187    16.7883   -17.5088 H          1  LIG1   0.0800
     25 H7        -19.4329    16.8311   -19.9086 H          1  LIG1   0.1400
     26 H8        -19.6790    18.1666   -18.7580 H          1  LIG1   0.1300
     27 H9        -15.8060    16.6589   -19.7542 H          1  LIG1   0.1000
     28 H10       -16.7208    15.2059   -19.2851 H          1  LIG1   0.1100
     29 H11       -17.4595    16.4124   -20.3654 H          1  LIG1   0.0900
     30 H12       -16.6086    14.8072   -17.0827 H          1  LIG1   0.4200
     31 H13       -14.1505    17.1179   -15.9976 H          1  LIG1   0.1500
     32 H14       -12.6518    16.7922   -14.0729 H          1  LIG1   0.1500
     33 H15       -14.8263    13.2967   -12.9525 H          1  LIG1   0.1500
     34 H16       -15.1072    11.9639   -15.0730 H          1  LIG1   0.0700
     35 H17       -16.6564    11.4501   -14.3631 H          1  LIG1   0.0700
     36 H18       -16.4024    10.5789   -16.6707 H          1  LIG1   0.0900
     37 H19       -17.7582    11.7274   -16.5669 H          1  LIG1   0.0700
     38 H20       -16.2090    12.2412   -17.2770 H          1  LIG1   0.0700
@<TRIPOS>BOND
     1    1    2 1
     2    1   22 1
     3    1   23 1
     4    1   24 1
     5    2    3 1
     6    2   25 1
     7    2   26 1
     8    3    4 1
     9    3    5 1
    10    3    6 1
    11    6    7 1
    12    6    8 1
    13    6    9 1
    14    8   27 1
    15    8   28 1
    16    8   29 1
    17    9   10 2
    18    9   11 am
    19   11   12 1
    20   11   30 1
    21   12   18 ar
    22   12   13 ar
    23   13   14 ar
    24   13   31 1
    25   14   15 ar
    26   14   32 1
    27   15   16 1
    28   15   17 ar
    29   17   18 ar
    30   17   33 1
    31   18   19 1
    32   19   20 1
    33   20   21 1
    34   20   34 1
    35   20   35 1
    36   21   36 1
    37   21   37 1
    38   21   38 1
##########                 Name:     ZINC000517245707
##########          Protonation:                 none
##########               SMILES:   CC1(C)CC[N@H+](CC(=O)NC2=CC=CC(C3=NC=CS3)=C2)C1
##########            Long Name:   NO_LONG_NAME
##########          FlexRecCode: 1
##########               Number:                 3874
##########   Ligand Source File: /nfs/db/export/3D/DG/ADRO/DGADRO.xbou.db2.gz
##########                 Rank:                    1
##########               Setnum:                  129
##########             Matchnum:                    1
##########                Cloud:                    1
##########        Electrostatic:           -43.993427
##########                 Gist:             0.000000
##########        Van der Waals:           -33.055862
##########  Ligand Polar Desolv:            17.890291
########## Ligand Apolar Desolv:            -4.887917
##########      Internal Energy:             0.000000
##########      Receptor Energy:             0.000000
########## Receptor Desolvation:             0.000000
########## Receptor Hydrophobic:             0.000000
##########         Total Energy:           -64.046913
##########        Ligand Charge:             1.000000
##########            Arbitrary:    +999.9990
##########        Ligand Energy:             0.000000

@<TRIPOS>MOLECULE
 ZINC000517245707      none
   44    46     0     0     0



@<TRIPOS>ATOM
      1 C1        -22.6071    15.8446   -18.8844 C.3        1  LIG1  -0.1600
      2 C2        -21.6311    16.9473   -19.2997 C.3        1  LIG1  -0.0800
      3 C3        -22.3358    17.9710   -20.1920 C.3        1  LIG1  -0.1500
      4 C4        -21.0399    17.6371   -18.0530 C.3        1  LIG1  -0.1400
      5 C5        -19.5188    17.3885   -18.1406 C.3        1  LIG1  -0.0100
      6 N1        -19.3863    16.1698   -18.9799 N.4        1  LIG1  -0.3800
      7 H1        -19.5740    15.3427   -18.4333 H          1  LIG1   0.4300
      8 C6        -18.0450    16.0991   -19.5747 C.3        1  LIG1  -0.0200
      9 C7        -17.0217    16.5407   -18.5604 C.2        1  LIG1   0.5000
     10 O1        -16.3106    17.4954   -18.7925 O.2        1  LIG1  -0.5000
     11 N2        -16.8968    15.8747   -17.3954 N.am       1  LIG1  -0.6500
     12 C8        -15.9465    16.2847   -16.4534 C.ar       1  LIG1   0.1200
     13 C9        -15.5889    17.6245   -16.3652 C.ar       1  LIG1  -0.1200
     14 C10       -14.6506    18.0346   -15.4363 C.ar       1  LIG1  -0.0900
     15 C11       -14.0626    17.1159   -14.5911 C.ar       1  LIG1  -0.1000
     16 C12       -14.4152    15.7676   -14.6719 C.ar       1  LIG1   0.0000
     17 C13       -13.7865    14.7809   -13.7673 C.2        1  LIG1   0.1000
     18 N3        -14.0321    13.5022   -13.7560 N.2        1  LIG1  -0.4600
     19 C14       -13.3769    12.7761   -12.8799 C.2        1  LIG1   0.0400
     20 C15       -12.5245    13.4409   -12.0928 C.2        1  LIG1  -0.2400
     21 S1        -12.5795    15.1457   -12.5370 S.3        1  LIG1   0.1100
     22 C16       -15.3660    15.3550   -15.6044 C.ar       1  LIG1  -0.0700
     23 C17       -20.4174    16.3400   -20.0356 C.3        1  LIG1   0.0000
     24 H2        -23.4575    16.2882   -18.3668 H          1  LIG1   0.0600
     25 H3        -22.9568    15.3161   -19.7712 H          1  LIG1   0.0800
     26 H4        -22.1021    15.1440   -18.2194 H          1  LIG1   0.0700
     27 H5        -21.6294    18.7496   -20.4798 H          1  LIG1   0.0800
     28 H6        -22.7137    17.4748   -21.0860 H          1  LIG1   0.0700
     29 H7        -23.1666    18.4181   -19.6462 H          1  LIG1   0.0700
     30 H8        -21.2507    18.7062   -18.0761 H          1  LIG1   0.1100
     31 H9        -21.4450    17.1901   -17.1452 H          1  LIG1   0.1000
     32 H10       -19.0221    18.2339   -18.6166 H          1  LIG1   0.1300
     33 H11       -19.1046    17.2131   -17.1476 H          1  LIG1   0.1500
     34 H12       -17.8361    15.0735   -19.8789 H          1  LIG1   0.1600
     35 H13       -17.9989    16.7528   -20.4457 H          1  LIG1   0.1600
     36 H14       -17.4654    15.1111   -17.2098 H          1  LIG1   0.4200
     37 H15       -16.0453    18.3480   -17.0246 H          1  LIG1   0.1400
     38 H16       -14.3765    19.0772   -15.3722 H          1  LIG1   0.1400
     39 H17       -13.3295    17.4399   -13.8672 H          1  LIG1   0.1300
     40 H18       -13.5179    11.7084   -12.7998 H          1  LIG1   0.1800
     41 H19       -11.9062    13.0075   -11.3205 H          1  LIG1   0.1800
     42 H20       -15.6428    14.3133   -15.6714 H          1  LIG1   0.1500
     43 H21       -20.6799    15.3752   -20.4697 H          1  LIG1   0.1400
     44 H22       -20.0616    17.0214   -20.8083 H          1  LIG1   0.1400
@<TRIPOS>BOND
     1    1    2 1
     2    1   24 1
     3    1   25 1
     4    1   26 1
     5    2   23 1
     6    2    3 1
     7    2    4 1
     8    3   27 1
     9    3   28 1
    10    3   29 1
    11    4    5 1
    12    4   30 1
    13    4   31 1
    14    5    6 1
    15    5   32 1
    16    5   33 1
    17    6    7 1
    18    6    8 1
    19    6   23 1
    20    8    9 1
    21    8   34 1
    22    8   35 1
    23    9   10 2
    24    9   11 am
    25   11   12 1
    26   11   36 1
    27   12   22 ar
    28   12   13 ar
    29   13   14 ar
    30   13   37 1
    31   14   15 ar
    32   14   38 1
    33   15   16 ar
    34   15   39 1
    35   16   17 1
    36   16   22 ar
    37   17   21 1
    38   17   18 2
    39   18   19 1
    40   19   20 2
    41   19   40 1
    42   20   21 1
    43   20   41 1
    44   22   42 1
    45   23   43 1
    46   23   44 1
##########                 Name:     ZINC000665565319
##########          Protonation:                 none
##########               SMILES:   CC(=O)C1=CC=C(NC(=O)[C@@]2(O)CC[N@@H+](CC3=CC=CC=C3)C2)C=C1
##########            Long Name:   NO_LONG_NAME
##########          FlexRecCode: 1
##########               Number:                 5359
##########   Ligand Source File: /nfs/db/export/3D/EE/ADMO/EEADMO.xagm.db2.gz
##########                 Rank:                    1
##########               Setnum:                  259
##########             Matchnum:                    1
##########                Cloud:                    1
##########        Electrostatic:           -38.493629
##########                 Gist:             0.000000
##########        Van der Waals:           -36.404663
##########  Ligand Polar Desolv:            15.842786
########## Ligand Apolar Desolv:            -3.556011
##########      Internal Energy:             0.000000
##########      Receptor Energy:             0.000000
########## Receptor Desolvation:             0.000000
########## Receptor Hydrophobic:             0.000000
##########         Total Energy:           -62.611519
##########        Ligand Charge:             1.000000
##########            Arbitrary:    +999.9990
##########        Ligand Energy:             0.000000

@<TRIPOS>MOLECULE
 ZINC000665565319      none
   48    50     0     0     0



@<TRIPOS>ATOM
      1 C1        -10.3687    23.5142   -16.6079 C.3        1  LIG1  -0.2000
      2 C2        -11.2988    23.1492   -17.7361 C.2        1  LIG1   0.3900
      3 O1        -11.2767    23.7838   -18.7696 O.2        1  LIG1  -0.4500
      4 C3        -12.2310    22.0248   -17.5843 C.ar       1  LIG1  -0.1700
      5 C4        -12.6167    21.2762   -18.7038 C.ar       1  LIG1  -0.0500
      6 C5        -13.4872    20.2274   -18.5574 C.ar       1  LIG1  -0.1500
      7 C6        -13.9879    19.9058   -17.2988 C.ar       1  LIG1   0.1500
      8 N1        -14.8723    18.8392   -17.1550 N.am       1  LIG1  -0.6600
      9 C7        -16.0504    18.8477   -17.8094 C.2        1  LIG1   0.5000
     10 O2        -16.3408    19.7840   -18.5235 O.2        1  LIG1  -0.4900
     11 C8        -17.0072    17.6938   -17.6537 C.3        1  LIG1   0.1000
     12 O3        -16.4820    16.7355   -16.7330 O.3        1  LIG1  -0.5300
     13 C9        -18.3840    18.1999   -17.1765 C.3        1  LIG1  -0.1700
     14 C10       -19.3684    17.8008   -18.2968 C.3        1  LIG1   0.0000
     15 N2        -18.7127    16.6571   -18.9814 N.4        1  LIG1  -0.3900
     16 H1        -18.8413    15.8079   -18.4519 H          1  LIG1   0.4300
     17 C11       -19.2439    16.4996   -20.3419 C.3        1  LIG1   0.0500
     18 C12       -20.7323    16.7357   -20.3304 C.ar       1  LIG1  -0.1600
     19 C13       -21.5979    15.6800   -20.1131 C.ar       1  LIG1  -0.0900
     20 C14       -22.9631    15.8966   -20.1026 C.ar       1  LIG1  -0.1100
     21 C15       -23.4628    17.1688   -20.3089 C.ar       1  LIG1  -0.0800
     22 C16       -22.5972    18.2246   -20.5252 C.ar       1  LIG1  -0.1100
     23 C17       -21.2318    18.0089   -20.5314 C.ar       1  LIG1  -0.1000
     24 C18       -17.2755    17.0314   -19.0222 C.3        1  LIG1   0.0200
     25 C19       -13.6069    20.6469   -16.1835 C.ar       1  LIG1  -0.1300
     26 C20       -12.7321    21.6935   -16.3195 C.ar       1  LIG1  -0.0400
     27 H2        -10.5318    22.8374   -15.7693 H          1  LIG1   0.0900
     28 H3         -9.3360    23.4307   -16.9465 H          1  LIG1   0.1000
     29 H4        -10.5657    24.5386   -16.2918 H          1  LIG1   0.1000
     30 H5        -12.2294    21.5253   -19.6807 H          1  LIG1   0.1400
     31 H6        -13.7855    19.6497   -19.4199 H          1  LIG1   0.1400
     32 H7        -14.6401    18.0904   -16.5837 H          1  LIG1   0.4100
     33 H8        -17.0554    15.9695   -16.5927 H          1  LIG1   0.4000
     34 H9        -18.6608    17.7170   -16.2394 H          1  LIG1   0.1200
     35 H10       -18.3678    19.2831   -17.0549 H          1  LIG1   0.1200
     36 H11       -20.3234    17.4924   -17.8714 H          1  LIG1   0.1400
     37 H12       -19.5102    18.6290   -18.9911 H          1  LIG1   0.1400
     38 H13       -18.7667    17.2219   -21.0042 H          1  LIG1   0.1400
     39 H14       -19.0389    15.4899   -20.6974 H          1  LIG1   0.1400
     40 H15       -21.2074    14.6860   -19.9520 H          1  LIG1   0.1300
     41 H16       -23.6394    15.0716   -19.9335 H          1  LIG1   0.1400
     42 H17       -24.5295    17.3378   -20.3013 H          1  LIG1   0.1400
     43 H18       -22.9876    19.2186   -20.6867 H          1  LIG1   0.1400
     44 H19       -20.5555    18.8338   -20.7005 H          1  LIG1   0.1300
     45 H20       -17.0899    17.7391   -19.8301 H          1  LIG1   0.1600
     46 H21       -16.6548    16.1437   -19.1431 H          1  LIG1   0.1500
     47 H22       -13.9978    20.3940   -15.2090 H          1  LIG1   0.1400
     48 H23       -12.4372    22.2678   -15.4537 H          1  LIG1   0.1400
@<TRIPOS>BOND
     1    1    2 1
     2    1   27 1
     3    1   28 1
     4    1   29 1
     5    2    3 2
     6    2    4 1
     7    4   26 ar
     8    4    5 ar
     9    5    6 ar
    10    5   30 1
    11    6    7 ar
    12    6   31 1
    13    7    8 1
    14    7   25 ar
    15    8    9 am
    16    8   32 1
    17    9   10 2
    18    9   11 1
    19   11   24 1
    20   11   12 1
    21   11   13 1
    22   12   33 1
    23   13   14 1
    24   13   34 1
    25   13   35 1
    26   14   15 1
    27   14   36 1
    28   14   37 1
    29   15   16 1
    30   15   17 1
    31   15   24 1
    32   17   18 1
    33   17   38 1
    34   17   39 1
    35   18   23 ar
    36   18   19 ar
    37   19   20 ar
    38   19   40 1
    39   20   21 ar
    40   20   41 1
    41   21   22 ar
    42   21   42 1
    43   22   23 ar
    44   22   43 1
    45   23   44 1
    46   24   45 1
    47   24   46 1
    48   25   26 ar
    49   25   47 1
    50   26   48 1
##########                 Name:     ZINC000115553831
##########          Protonation:                 none
##########               SMILES:   COC1=CC=C(CNC(=O)C[N@@H+]2C[C@H](C3=CC=CC=C3)C[C@@H]2C)C=C1
##########            Long Name:   NO_LONG_NAME
##########          FlexRecCode: 1
##########               Number:                 2088
##########   Ligand Source File: /nfs/db/export/3D/EG/ADRO/EGADRO.xabv.db2.gz
##########                 Rank:                    1
##########               Setnum:                   80
##########             Matchnum:                    1
##########                Cloud:                    1
##########        Electrostatic:           -38.343842
##########                 Gist:             0.000000
##########        Van der Waals:           -35.574638
##########  Ligand Polar Desolv:            16.324450
########## Ligand Apolar Desolv:            -4.972227
##########      Internal Energy:             0.000000
##########      Receptor Energy:             0.000000
########## Receptor Desolvation:             0.000000
########## Receptor Hydrophobic:             0.000000
##########         Total Energy:           -62.566257
##########        Ligand Charge:             1.000000
##########            Arbitrary:    +999.9990
##########        Ligand Energy:             0.000000

@<TRIPOS>MOLECULE
 ZINC000115553831      none
   52    54     0     0     0



@<TRIPOS>ATOM
      1 C1        -14.8955    10.6833   -12.3776 C.3        1  LIG1   0.0200
      2 O1        -14.2424    11.9385   -12.1790 O.3        1  LIG1  -0.3100
      3 C2        -14.4739    12.9077   -13.1031 C.ar       1  LIG1   0.1500
      4 C3        -13.8679    14.1492   -12.9747 C.ar       1  LIG1  -0.2100
      5 C4        -14.1046    15.1326   -13.9156 C.ar       1  LIG1  -0.0500
      6 C5        -14.9450    14.8807   -14.9841 C.ar       1  LIG1  -0.1700
      7 C6        -15.2017    15.9554   -16.0089 C.3        1  LIG1   0.1700
      8 N1        -16.6350    16.0146   -16.3059 N.am       1  LIG1  -0.7000
      9 C7        -17.1999    17.1824   -16.6715 C.2        1  LIG1   0.5000
     10 O2        -16.5215    18.1843   -16.7547 O.2        1  LIG1  -0.5300
     11 C8        -18.6743    17.2432   -16.9772 C.3        1  LIG1  -0.0400
     12 N2        -18.8897    16.9744   -18.4052 N.4        1  LIG1  -0.3700
     13 H1        -18.5380    16.0573   -18.6358 H          1  LIG1   0.4300
     14 C9        -18.1889    17.9940   -19.2147 C.3        1  LIG1   0.0000
     15 C10       -19.1169    18.2405   -20.4303 C.3        1  LIG1  -0.0600
     16 H2        -18.9818    17.4683   -21.1876 H          1  LIG1   0.1100
     17 C11       -18.8892    19.6110   -21.0142 C.ar       1  LIG1  -0.1000
     18 C12       -19.9296    20.2818   -21.6293 C.ar       1  LIG1  -0.1200
     19 C13       -19.7207    21.5390   -22.1649 C.ar       1  LIG1  -0.1100
     20 C14       -18.4716    22.1256   -22.0846 C.ar       1  LIG1  -0.1000
     21 C15       -17.4315    21.4552   -21.4687 C.ar       1  LIG1  -0.1100
     22 C16       -17.6414    20.1998   -20.9294 C.ar       1  LIG1  -0.1000
     23 C17       -20.5210    18.1397   -19.7781 C.3        1  LIG1  -0.1300
     24 C18       -20.3302    17.0449   -18.7116 C.3        1  LIG1   0.0200
     25 H3        -20.6710    16.0852   -19.1004 H          1  LIG1   0.1400
     26 C19       -21.1176    17.4043   -17.4500 C.3        1  LIG1  -0.1800
     27 C20       -15.5500    13.6442   -15.1144 C.ar       1  LIG1  -0.0600
     28 C21       -15.3124    12.6559   -14.1789 C.ar       1  LIG1  -0.1500
     29 H4        -14.6258    10.0016   -11.5710 H          1  LIG1   0.0600
     30 H5        -15.9753    10.8320   -12.3817 H          1  LIG1   0.1100
     31 H6        -14.5835    10.2587   -13.3319 H          1  LIG1   0.0600
     32 H7        -13.2119    14.3468   -12.1397 H          1  LIG1   0.1300
     33 H8        -13.6330    16.0991   -13.8162 H          1  LIG1   0.1300
     34 H9        -14.8719    16.9175   -15.6168 H          1  LIG1   0.0900
     35 H10       -14.6507    15.7266   -16.9211 H          1  LIG1   0.0900
     36 H11       -17.1776    15.2132   -16.2395 H          1  LIG1   0.4100
     37 H12       -19.1997    16.4951   -16.3834 H          1  LIG1   0.1600
     38 H13       -19.0554    18.2347   -16.7325 H          1  LIG1   0.1600
     39 H14       -18.0624    18.9124   -18.6415 H          1  LIG1   0.1300
     40 H15       -17.2217    17.6163   -19.5462 H          1  LIG1   0.1500
     41 H16       -20.9056    19.8235   -21.6920 H          1  LIG1   0.1200
     42 H17       -20.5334    22.0628   -22.6462 H          1  LIG1   0.1300
     43 H18       -18.3081    23.1074   -22.5037 H          1  LIG1   0.1300
     44 H19       -16.4554    21.9134   -21.4064 H          1  LIG1   0.1300
     45 H20       -16.8287    19.6761   -20.4481 H          1  LIG1   0.1300
     46 H21       -20.7985    19.0855   -19.3125 H          1  LIG1   0.1000
     47 H22       -21.2667    17.8374   -20.5134 H          1  LIG1   0.1200
     48 H23       -22.1805    17.4539   -17.6868 H          1  LIG1   0.1100
     49 H24       -20.9502    16.6431   -16.6880 H          1  LIG1   0.0800
     50 H25       -20.7832    18.3722   -17.0763 H          1  LIG1   0.0800
     51 H26       -16.2058    13.4498   -15.9501 H          1  LIG1   0.1300
     52 H27       -15.7852    11.6902   -14.2812 H          1  LIG1   0.1400
@<TRIPOS>BOND
     1    1    2 1
     2    1   29 1
     3    1   30 1
     4    1   31 1
     5    2    3 1
     6    3   28 ar
     7    3    4 ar
     8    4    5 ar
     9    4   32 1
    10    5    6 ar
    11    5   33 1
    12    6    7 1
    13    6   27 ar
    14    7    8 1
    15    7   34 1
    16    7   35 1
    17    8    9 am
    18    8   36 1
    19    9   10 2
    20    9   11 1
    21   11   12 1
    22   11   37 1
    23   11   38 1
    24   12   13 1
    25   12   24 1
    26   12   14 1
    27   14   15 1
    28   14   39 1
    29   14   40 1
    30   15   16 1
    31   15   17 1
    32   15   23 1
    33   17   22 ar
    34   17   18 ar
    35   18   19 ar
    36   18   41 1
    37   19   20 ar
    38   19   42 1
    39   20   21 ar
    40   20   43 1
    41   21   22 ar
    42   21   44 1
    43   22   45 1
    44   23   24 1
    45   23   46 1
    46   23   47 1
    47   24   25 1
    48   24   26 1
    49   26   48 1
    50   26   49 1
    51   26   50 1
    52   27   28 ar
    53   27   51 1
    54   28   52 1
##########                 Name:     ZINC000525291470
##########          Protonation:                 none
##########               SMILES:   C[C@@H]1CC[N@H+](CCNC(=O)C2=CN(C3=CC=CC=C3Cl)N=C2)C1
##########            Long Name:   NO_LONG_NAME
##########          FlexRecCode: 1
##########               Number:                 6459
##########   Ligand Source File: /nfs/db/export/3D/EF/ADRO/EFADRO.xaxg.db2.gz
##########                 Rank:                    1
##########               Setnum:                   59
##########             Matchnum:                    1
##########                Cloud:                    1
##########        Electrostatic:           -39.005325
##########                 Gist:             0.000000
##########        Van der Waals:           -35.450024
##########  Ligand Polar Desolv:            17.302492
########## Ligand Apolar Desolv:            -5.567471
##########      Internal Energy:             0.000000
##########      Receptor Energy:             0.000000
########## Receptor Desolvation:             0.000000
########## Receptor Hydrophobic:             0.000000
##########         Total Energy:           -62.720329
##########        Ligand Charge:             1.000000
##########            Arbitrary:    +999.9990
##########        Ligand Energy:             0.000000

@<TRIPOS>MOLECULE
 ZINC000525291470      none
   45    47     0     0     0



@<TRIPOS>ATOM
      1 C1        -21.9018    16.0377   -20.2350 C.3        1  LIG1  -0.1500
      2 C2        -20.9842    16.0359   -19.0105 C.3        1  LIG1  -0.1100
      3 H1        -21.0601    15.0926   -18.4697 H          1  LIG1   0.1100
      4 C3        -21.2974    17.2368   -18.0797 C.3        1  LIG1  -0.1400
      5 C4        -19.9552    17.4752   -17.3562 C.3        1  LIG1  -0.0200
      6 N1        -18.8952    16.8917   -18.1987 N.4        1  LIG1  -0.3900
      7 H2        -18.4210    16.1605   -17.6901 H          1  LIG1   0.4300
      8 C5        -17.9337    17.9358   -18.5772 C.3        1  LIG1  -0.0200
      9 C6        -16.6159    17.2854   -19.0029 C.3        1  LIG1   0.1000
     10 N2        -16.0746    16.5039   -17.8882 N.am       1  LIG1  -0.7300
     11 C7        -15.7767    17.1104   -16.7220 C.2        1  LIG1   0.6100
     12 O1        -15.9572    18.3062   -16.5950 O.2        1  LIG1  -0.5300
     13 C8        -15.2319    16.3240   -15.6004 C.2        1  LIG1  -0.3000
     14 C9        -15.4388    14.9791   -15.3657 C.2        1  LIG1   0.1400
     15 N3        -14.7669    14.6587   -14.2452 N.pl3      1  LIG1  -0.3000
     16 C10       -14.7140    13.3876   -13.6567 C.ar       1  LIG1   0.1400
     17 C11       -15.7826    12.5126   -13.7940 C.ar       1  LIG1  -0.1200
     18 C12       -15.7276    11.2604   -13.2129 C.ar       1  LIG1  -0.0900
     19 C13       -14.6103    10.8778   -12.4949 C.ar       1  LIG1  -0.1000
     20 C14       -13.5432    11.7469   -12.3550 C.ar       1  LIG1  -0.0900
     21 C15       -13.5891    12.9986   -12.9390 C.ar       1  LIG1  -0.0400
     22 Cl1       -12.2499    14.0892   -12.7641 Cl         1  LIG1  -0.0200
     23 N4        -14.1298    15.8090   -13.7664 N.2        1  LIG1  -0.2600
     24 C16       -14.3952    16.8041   -14.5676 C.2        1  LIG1   0.0800
     25 C17       -19.5177    16.3269   -19.4157 C.3        1  LIG1  -0.0100
     26 H3        -21.8080    16.9896   -20.7578 H          1  LIG1   0.0700
     27 H4        -21.6164    15.2260   -20.9040 H          1  LIG1   0.0800
     28 H5        -22.9345    15.8991   -19.9153 H          1  LIG1   0.0700
     29 H6        -21.5816    18.1127   -18.6629 H          1  LIG1   0.1000
     30 H7        -22.0793    16.9775   -17.3658 H          1  LIG1   0.1100
     31 H8        -19.7849    18.5447   -17.2337 H          1  LIG1   0.1300
     32 H9        -19.9668    16.9853   -16.3826 H          1  LIG1   0.1400
     33 H10       -18.3365    18.5172   -19.4066 H          1  LIG1   0.1400
     34 H11       -17.7564    18.5925   -17.7254 H          1  LIG1   0.1400
     35 H12       -16.7933    16.6288   -19.8546 H          1  LIG1   0.0900
     36 H13       -15.9024    18.0601   -19.2837 H          1  LIG1   0.0900
     37 H14       -15.9306    15.5501   -17.9894 H          1  LIG1   0.4100
     38 H15       -16.0311    14.3082   -15.9702 H          1  LIG1   0.1900
     39 H16       -16.6564    12.8105   -14.3545 H          1  LIG1   0.1400
     40 H17       -16.5591    10.5794   -13.3196 H          1  LIG1   0.1500
     41 H18       -14.5702     9.8981   -12.0420 H          1  LIG1   0.1400
     42 H19       -12.6716    11.4454   -11.7932 H          1  LIG1   0.1500
     43 H20       -14.0422    17.8187   -14.4573 H          1  LIG1   0.1900
     44 H21       -19.0134    15.4055   -19.7071 H          1  LIG1   0.1400
     45 H22       -19.4861    17.0515   -20.2293 H          1  LIG1   0.1300
@<TRIPOS>BOND
     1    1    2 1
     2    1   26 1
     3    1   27 1
     4    1   28 1
     5    2    3 1
     6    2   25 1
     7    2    4 1
     8    4    5 1
     9    4   29 1
    10    4   30 1
    11    5    6 1
    12    5   31 1
    13    5   32 1
    14    6    7 1
    15    6    8 1
    16    6   25 1
    17    8    9 1
    18    8   33 1
    19    8   34 1
    20    9   10 1
    21    9   35 1
    22    9   36 1
    23   10   11 am
    24   10   37 1
    25   11   12 2
    26   11   13 1
    27   13   24 1
    28   13   14 2
    29   14   15 1
    30   14   38 1
    31   15   16 1
    32   15   23 1
    33   16   21 ar
    34   16   17 ar
    35   17   18 ar
    36   17   39 1
    37   18   19 ar
    38   18   40 1
    39   19   20 ar
    40   19   41 1
    41   20   21 ar
    42   20   42 1
    43   21   22 1
    44   23   24 2
    45   24   43 1
    46   25   44 1
    47   25   45 1
##########                 Name:     ZINC000372295547
##########          Protonation:                 none
##########               SMILES:   C[C@H](C(=O)NC1=CC=C(OC(F)(F)F)C=C1)[N@H+]1C[C@@H](O)C2(CC2)C1
##########            Long Name:   NO_LONG_NAME
##########          FlexRecCode: 1
##########               Number:                10105
##########   Ligand Source File: /nfs/db/export/3D/EE/ADMO/EEADMO.xatg.db2.gz
##########                 Rank:                    1
##########               Setnum:                  142
##########             Matchnum:                    1
##########                Cloud:                    1
##########        Electrostatic:           -45.137638
##########                 Gist:             0.000000
##########        Van der Waals:           -30.866518
##########  Ligand Polar Desolv:            15.412558
########## Ligand Apolar Desolv:            -2.482121
##########      Internal Energy:             0.000000
##########      Receptor Energy:             0.000000
########## Receptor Desolvation:             0.000000
########## Receptor Hydrophobic:             0.000000
##########         Total Energy:           -63.073723
##########        Ligand Charge:             1.000000
##########            Arbitrary:    +999.9990
##########        Ligand Energy:             0.000000

@<TRIPOS>MOLECULE
 ZINC000372295547      none
   44    46     0     0     0



@<TRIPOS>ATOM
      1 C1        -17.3656    16.4016   -20.0331 C.3        1  LIG1  -0.1800
      2 C2        -17.9858    17.0979   -18.8201 C.3        1  LIG1   0.0100
      3 H1        -18.1235    18.1566   -19.0399 H          1  LIG1   0.1700
      4 C3        -17.0714    16.9462   -17.6319 C.2        1  LIG1   0.5100
      5 O1        -16.6186    17.9300   -17.0855 O.2        1  LIG1  -0.5100
      6 N1        -16.7564    15.7175   -17.1764 N.am       1  LIG1  -0.6400
      7 C4        -15.9063    15.5765   -16.0718 C.ar       1  LIG1   0.1000
      8 C5        -16.0403    14.4825   -15.2275 C.ar       1  LIG1  -0.0900
      9 C6        -15.2018    14.3438   -14.1391 C.ar       1  LIG1  -0.1000
     10 C7        -14.2259    15.2975   -13.8890 C.ar       1  LIG1   0.1100
     11 O2        -13.4008    15.1607   -12.8170 O.3        1  LIG1  -0.3100
     12 C8        -12.1836    14.4409   -13.0227 C.3        1  LIG1   0.6000
     13 F1        -12.3733    13.4800   -14.0218 F          1  LIG1  -0.1600
     14 F2        -11.1770    15.3295   -13.4156 F          1  LIG1  -0.1200
     15 F3        -11.8089    13.8084   -11.8324 F          1  LIG1  -0.1600
     16 C9        -14.0912    16.3906   -14.7325 C.ar       1  LIG1  -0.1700
     17 C10       -14.9256    16.5277   -15.8242 C.ar       1  LIG1  -0.0700
     18 N2        -19.2872    16.4874   -18.5176 N.4        1  LIG1  -0.3800
     19 H2        -19.1768    15.5058   -18.3116 H          1  LIG1   0.4300
     20 C11       -19.9366    17.1871   -17.3785 C.3        1  LIG1  -0.0400
     21 C12       -21.4415    16.8693   -17.5315 C.3        1  LIG1   0.1300
     22 H3        -21.7121    16.0095   -16.9187 H          1  LIG1   0.1000
     23 O3        -22.2293    18.0051   -17.1690 O.3        1  LIG1  -0.5400
     24 C13       -21.6230    16.5427   -19.0216 C.3        1  LIG1  -0.1900
     25 C14       -22.6025    15.4737   -19.4873 C.3        1  LIG1  -0.1500
     26 C15       -22.8799    16.9516   -19.7777 C.3        1  LIG1  -0.1200
     27 C16       -20.2270    16.6771   -19.6545 C.3        1  LIG1   0.0400
     28 H4        -17.2279    15.3429   -19.8133 H          1  LIG1   0.0900
     29 H5        -18.0270    16.5112   -20.8926 H          1  LIG1   0.1000
     30 H6        -16.4000    16.8546   -20.2577 H          1  LIG1   0.1100
     31 H7        -17.1184    14.9308   -17.6134 H          1  LIG1   0.4200
     32 H8        -16.8005    13.7403   -15.4215 H          1  LIG1   0.1500
     33 H9        -15.3059    13.4929   -13.4822 H          1  LIG1   0.1500
     34 H10       -13.3312    17.1328   -14.5372 H          1  LIG1   0.1400
     35 H11       -14.8204    17.3786   -16.4809 H          1  LIG1   0.1500
     36 H12       -19.5611    16.8005   -16.4311 H          1  LIG1   0.1500
     37 H13       -19.7664    18.2617   -17.4456 H          1  LIG1   0.1400
     38 H14       -22.0995    18.2989   -16.2569 H          1  LIG1   0.4000
     39 H15       -22.3005    14.8441   -20.3242 H          1  LIG1   0.1100
     40 H16       -23.2144    14.9861   -18.7283 H          1  LIG1   0.1100
     41 H17       -23.6741    17.4360   -19.2098 H          1  LIG1   0.1200
     42 H18       -22.7602    17.2939   -20.8057 H          1  LIG1   0.1100
     43 H19       -20.1001    17.6686   -20.0895 H          1  LIG1   0.1400
     44 H20       -20.0758    15.9065   -20.4104 H          1  LIG1   0.1400
@<TRIPOS>BOND
     1    1    2 1
     2    1   28 1
     3    1   29 1
     4    1   30 1
     5    2    3 1
     6    2    4 1
     7    2   18 1
     8    4    5 2
     9    4    6 am
    10    6    7 1
    11    6   31 1
    12    7   17 ar
    13    7    8 ar
    14    8    9 ar
    15    8   32 1
    16    9   10 ar
    17    9   33 1
    18   10   11 1
    19   10   16 ar
    20   11   12 1
    21   12   13 1
    22   12   14 1
    23   12   15 1
    24   16   17 ar
    25   16   34 1
    26   17   35 1
    27   18   19 1
    28   18   27 1
    29   18   20 1
    30   20   21 1
    31   20   36 1
    32   20   37 1
    33   21   22 1
    34   21   23 1
    35   21   24 1
    36   23   38 1
    37   24   26 1
    38   24   25 1
    39   24   27 1
    40   25   26 1
    41   25   39 1
    42   25   40 1
    43   26   41 1
    44   26   42 1
    45   27   43 1
    46   27   44 1
##########                 Name:     ZINC000471029505
##########          Protonation:                 none
##########               SMILES:   CC1=CC=C([C@@H]2CC[N@@H+](CC(=O)NC3=CC=CC=C3)C2)C(C)=C1
##########            Long Name:   NO_LONG_NAME
##########          FlexRecCode: 1
##########               Number:                 5632
##########   Ligand Source File: /nfs/db/export/3D/DH/ADMO/DHADMO.xdw.db2.gz
##########                 Rank:                    1
##########               Setnum:                   19
##########             Matchnum:                    1
##########                Cloud:                    1
##########        Electrostatic:           -44.230209
##########                 Gist:             0.000000
##########        Van der Waals:           -33.208221
##########  Ligand Polar Desolv:            18.012005
########## Ligand Apolar Desolv:            -7.087193
##########      Internal Energy:             0.000000
##########      Receptor Energy:             0.000000
########## Receptor Desolvation:             0.000000
########## Receptor Hydrophobic:             0.000000
##########         Total Energy:           -66.513618
##########        Ligand Charge:             1.000000
##########            Arbitrary:    +999.9990
##########        Ligand Energy:             0.000000

@<TRIPOS>MOLECULE
 ZINC000471029505      none
   48    50     0     0     0



@<TRIPOS>ATOM
      1 C1        -14.9442    11.2151   -12.5720 C.3        1  LIG1  -0.1300
      2 C2        -15.1942    12.4670   -13.3727 C.ar       1  LIG1  -0.0600
      3 C3        -16.2832    12.5391   -14.2207 C.ar       1  LIG1  -0.1200
      4 C4        -16.5126    13.6875   -14.9554 C.ar       1  LIG1  -0.1100
      5 C5        -15.6530    14.7639   -14.8415 C.ar       1  LIG1  -0.1200
      6 C6        -15.9027    16.0156   -15.6428 C.3        1  LIG1  -0.0600
      7 H1        -15.1331    16.7584   -15.4325 H          1  LIG1   0.1200
      8 C7        -17.3026    16.5877   -15.3220 C.3        1  LIG1  -0.1400
      9 C8        -17.8057    17.0689   -16.7062 C.3        1  LIG1  -0.0100
     10 N1        -17.2906    16.0302   -17.6349 N.4        1  LIG1  -0.3800
     11 H2        -17.8850    15.2154   -17.6097 H          1  LIG1   0.4300
     12 C9        -17.2189    16.5636   -19.0018 C.3        1  LIG1  -0.0200
     13 C10       -18.5945    16.9869   -19.4486 C.2        1  LIG1   0.5000
     14 O1        -18.8031    18.1409   -19.7586 O.2        1  LIG1  -0.5100
     15 N2        -19.5930    16.0834   -19.5037 N.am       1  LIG1  -0.6400
     16 C11       -20.8702    16.4765   -19.9186 C.ar       1  LIG1   0.1100
     17 C12       -21.9933    15.8275   -19.4227 C.ar       1  LIG1  -0.1300
     18 C13       -23.2526    16.2177   -19.8342 C.ar       1  LIG1  -0.1000
     19 C14       -23.3957    17.2533   -20.7395 C.ar       1  LIG1  -0.1200
     20 C15       -22.2793    17.9012   -21.2355 C.ar       1  LIG1  -0.1000
     21 C16       -21.0176    17.5201   -20.8228 C.ar       1  LIG1  -0.1100
     22 C17       -15.9339    15.6897   -17.1475 C.3        1  LIG1   0.0000
     23 C18       -14.5643    14.6924   -13.9923 C.ar       1  LIG1  -0.0600
     24 C19       -13.6273    15.8661   -13.8678 C.3        1  LIG1  -0.1300
     25 C20       -14.3372    13.5456   -13.2550 C.ar       1  LIG1  -0.1100
     26 H3        -15.7179    10.4804   -12.7953 H          1  LIG1   0.0800
     27 H4        -13.9684    10.8057   -12.8327 H          1  LIG1   0.0700
     28 H5        -14.9658    11.4537   -11.5086 H          1  LIG1   0.0700
     29 H6        -16.9549    11.6980   -14.3096 H          1  LIG1   0.1300
     30 H7        -17.3631    13.7435   -15.6185 H          1  LIG1   0.1100
     31 H8        -17.9548    15.8106   -14.9234 H          1  LIG1   0.1000
     32 H9        -17.2276    17.4239   -14.6269 H          1  LIG1   0.1200
     33 H10       -18.8949    17.1001   -16.7300 H          1  LIG1   0.1500
     34 H11       -17.3863    18.0450   -16.9499 H          1  LIG1   0.1300
     35 H12       -16.5497    17.4238   -19.0216 H          1  LIG1   0.1600
     36 H13       -16.8401    15.7930   -19.6731 H          1  LIG1   0.1600
     37 H14       -19.4262    15.1605   -19.2557 H          1  LIG1   0.4200
     38 H15       -21.8822    15.0182   -18.7161 H          1  LIG1   0.1300
     39 H16       -24.1266    15.7136   -19.4489 H          1  LIG1   0.1300
     40 H17       -24.3815    17.5564   -21.0600 H          1  LIG1   0.1300
     41 H18       -22.3943    18.7091   -21.9429 H          1  LIG1   0.1300
     42 H19       -20.1462    18.0264   -21.2107 H          1  LIG1   0.1400
     43 H20       -15.1894    16.2863   -17.6745 H          1  LIG1   0.1400
     44 H21       -15.7396    14.6283   -17.3015 H          1  LIG1   0.1400
     45 H22       -12.8360    15.6255   -13.1579 H          1  LIG1   0.0800
     46 H23       -13.1881    16.0852   -14.8410 H          1  LIG1   0.0800
     47 H24       -14.1802    16.7365   -13.5143 H          1  LIG1   0.0700
     48 H25       -13.4869    13.4897   -12.5916 H          1  LIG1   0.1300
@<TRIPOS>BOND
     1    1    2 1
     2    1   26 1
     3    1   27 1
     4    1   28 1
     5    2   25 ar
     6    2    3 ar
     7    3    4 ar
     8    3   29 1
     9    4    5 ar
    10    4   30 1
    11    5    6 1
    12    5   23 ar
    13    6    7 1
    14    6   22 1
    15    6    8 1
    16    8    9 1
    17    8   31 1
    18    8   32 1
    19    9   10 1
    20    9   33 1
    21    9   34 1
    22   10   11 1
    23   10   12 1
    24   10   22 1
    25   12   13 1
    26   12   35 1
    27   12   36 1
    28   13   14 2
    29   13   15 am
    30   15   16 1
    31   15   37 1
    32   16   21 ar
    33   16   17 ar
    34   17   18 ar
    35   17   38 1
    36   18   19 ar
    37   18   39 1
    38   19   20 ar
    39   19   40 1
    40   20   21 ar
    41   20   41 1
    42   21   42 1
    43   22   43 1
    44   22   44 1
    45   23   24 1
    46   23   25 ar
    47   24   45 1
    48   24   46 1
    49   24   47 1
    50   25   48 1
##########                 Name:     ZINC000451193503
##########          Protonation:                 none
##########               SMILES:   COC[C@]1(C)CC[N@H+]([C@H](C)C(=O)NCC2=CC=C(C)C=C2)C1
##########            Long Name:   NO_LONG_NAME
##########          FlexRecCode: 1
##########               Number:                 1931
##########   Ligand Source File: /nfs/db/export/3D/DE/ADMO/DEADMO.xbft.db2.gz
##########                 Rank:                    1
##########               Setnum:                  101
##########             Matchnum:                    1
##########                Cloud:                    1
##########        Electrostatic:           -39.559540
##########                 Gist:             0.000000
##########        Van der Waals:           -30.965679
##########  Ligand Polar Desolv:            12.186830
########## Ligand Apolar Desolv:            -4.944125
##########      Internal Energy:             0.000000
##########      Receptor Energy:             0.000000
########## Receptor Desolvation:             0.000000
########## Receptor Hydrophobic:             0.000000
##########         Total Energy:           -63.282516
##########        Ligand Charge:             1.000000
##########            Arbitrary:    +999.9990
##########        Ligand Energy:             0.000000

@<TRIPOS>MOLECULE
 ZINC000451193503      none
   51    52     0     0     0



@<TRIPOS>ATOM
      1 C1        -21.7160    19.8330   -21.1597 C.3        1  LIG1   0.0300
      2 O1        -21.1286    18.8831   -20.2683 O.3        1  LIG1  -0.3800
      3 C2        -21.6723    17.5664   -20.3811 C.3        1  LIG1   0.0700
      4 C3        -20.9729    16.6387   -19.3856 C.3        1  LIG1  -0.0800
      5 C4        -21.5777    15.2349   -19.4537 C.3        1  LIG1  -0.1500
      6 C5        -21.0865    17.2046   -17.9550 C.3        1  LIG1  -0.1300
      7 C6        -19.6304    17.4447   -17.5019 C.3        1  LIG1  -0.0100
      8 N1        -18.8214    16.5189   -18.3357 N.4        1  LIG1  -0.3800
      9 H1        -18.8686    15.5804   -17.9683 H          1  LIG1   0.4300
     10 C7        -17.4264    16.9744   -18.4034 C.3        1  LIG1   0.0100
     11 H2        -17.3906    17.9709   -18.8438 H          1  LIG1   0.1600
     12 C8        -16.6150    16.0061   -19.2665 C.3        1  LIG1  -0.1800
     13 C9        -16.8441    17.0180   -17.0142 C.2        1  LIG1   0.5000
     14 O2        -17.3442    17.7299   -16.1692 O.2        1  LIG1  -0.5300
     15 N2        -15.7678    16.2657   -16.7108 N.am       1  LIG1  -0.7000
     16 C10       -15.2019    16.3080   -15.3601 C.3        1  LIG1   0.1600
     17 C11       -15.2515    14.9303   -14.7514 C.ar       1  LIG1  -0.1400
     18 C12       -14.1525    14.4328   -14.0765 C.ar       1  LIG1  -0.0900
     19 C13       -14.1981    13.1692   -13.5180 C.ar       1  LIG1  -0.1200
     20 C14       -15.3430    12.4032   -13.6339 C.ar       1  LIG1  -0.0600
     21 C15       -15.3926    11.0253   -13.0254 C.3        1  LIG1  -0.1200
     22 C16       -16.4425    12.9011   -14.3075 C.ar       1  LIG1  -0.1200
     23 C17       -16.3983    14.1664   -14.8627 C.ar       1  LIG1  -0.0900
     24 C18       -19.4579    16.5846   -19.6765 C.3        1  LIG1   0.0000
     25 H3        -21.2491    20.8069   -21.0120 H          1  LIG1   0.0500
     26 H4        -21.5622    19.5088   -22.1889 H          1  LIG1   0.0500
     27 H5        -22.7846    19.9079   -20.9582 H          1  LIG1   0.1000
     28 H6        -22.7400    17.5944   -20.1634 H          1  LIG1   0.0600
     29 H7        -21.5177    17.1952   -21.3942 H          1  LIG1   0.0600
     30 H8        -21.0702    14.5858   -18.7401 H          1  LIG1   0.0700
     31 H9        -22.6388    15.2842   -19.2093 H          1  LIG1   0.0600
     32 H10       -21.4548    14.8348   -20.4601 H          1  LIG1   0.0900
     33 H11       -21.6405    18.1433   -17.9620 H          1  LIG1   0.1200
     34 H12       -21.5727    16.4821   -17.2995 H          1  LIG1   0.1000
     35 H13       -19.3394    18.4782   -17.6897 H          1  LIG1   0.1300
     36 H14       -19.5163    17.2028   -16.4453 H          1  LIG1   0.1500
     37 H15       -15.5799    16.3441   -19.3167 H          1  LIG1   0.1100
     38 H16       -16.6508    15.0096   -18.8261 H          1  LIG1   0.0900
     39 H17       -17.0362    15.9745   -20.2713 H          1  LIG1   0.1000
     40 H18       -15.3679    15.6962   -17.3865 H          1  LIG1   0.4100
     41 H19       -14.1668    16.6460   -15.4103 H          1  LIG1   0.0900
     42 H20       -15.7800    16.9980   -14.7454 H          1  LIG1   0.0900
     43 H21       -13.2581    15.0313   -13.9858 H          1  LIG1   0.1200
     44 H22       -13.3392    12.7802   -12.9913 H          1  LIG1   0.1300
     45 H23       -16.3677    10.5781   -13.2179 H          1  LIG1   0.0800
     46 H24       -14.6141    10.4042   -13.4686 H          1  LIG1   0.0700
     47 H25       -15.2317    11.0972   -11.9497 H          1  LIG1   0.0700
     48 H26       -17.3371    12.3028   -14.3978 H          1  LIG1   0.1300
     49 H27       -17.2573    14.5555   -15.3891 H          1  LIG1   0.1200
     50 H28       -19.2138    15.6950   -20.2571 H          1  LIG1   0.1400
     51 H29       -19.1398    17.4835   -20.2047 H          1  LIG1   0.1400
@<TRIPOS>BOND
     1    1    2 1
     2    1   25 1
     3    1   26 1
     4    1   27 1
     5    2    3 1
     6    3    4 1
     7    3   28 1
     8    3   29 1
     9    4   24 1
    10    4    5 1
    11    4    6 1
    12    5   30 1
    13    5   31 1
    14    5   32 1
    15    6    7 1
    16    6   33 1
    17    6   34 1
    18    7    8 1
    19    7   35 1
    20    7   36 1
    21    8    9 1
    22    8   10 1
    23    8   24 1
    24   10   11 1
    25   10   12 1
    26   10   13 1
    27   12   37 1
    28   12   38 1
    29   12   39 1
    30   13   14 2
    31   13   15 am
    32   15   16 1
    33   15   40 1
    34   16   17 1
    35   16   41 1
    36   16   42 1
    37   17   23 ar
    38   17   18 ar
    39   18   19 ar
    40   18   43 1
    41   19   20 ar
    42   19   44 1
    43   20   21 1
    44   20   22 ar
    45   21   45 1
    46   21   46 1
    47   21   47 1
    48   22   23 ar
    49   22   48 1
    50   23   49 1
    51   24   50 1
    52   24   51 1
##########                 Name:     ZINC000296405089
##########          Protonation:                 none
##########               SMILES:   COc1cc(NC(=O)C[NH2+][C@@H]2[C@H]3CCO[C@H]3C2(C)C)cc(OC)c1
##########            Long Name:   NO_LONG_NAME
##########          FlexRecCode: 1
##########               Number:                 9844
##########   Ligand Source File: /nfs/db/export/3D/EE/ADRO/EEADRO.xczn.db2.gz
##########                 Rank:                    1
##########               Setnum:                  102
##########             Matchnum:                    1
##########                Cloud:                    1
##########        Electrostatic:           -47.183285
##########                 Gist:             0.000000
##########        Van der Waals:           -30.573870
##########  Ligand Polar Desolv:            17.254818
########## Ligand Apolar Desolv:            -2.347585
##########      Internal Energy:             0.000000
##########      Receptor Energy:             0.000000
########## Receptor Desolvation:             0.000000
########## Receptor Hydrophobic:             0.000000
##########         Total Energy:           -62.849922
##########        Ligand Charge:             1.000000
##########            Arbitrary:    +999.9990
##########        Ligand Energy:             0.000000

@<TRIPOS>MOLECULE
 ZINC000296405089      none
   51    53     0     0     0



@<TRIPOS>ATOM
      1 C1        -13.0315    14.8338   -11.7255 C.3        1  LIG1   0.0200
      2 O1        -13.7080    15.3642   -12.8669 O.3        1  LIG1  -0.3100
      3 C2        -14.4702    14.5011   -13.5886 C.ar       1  LIG1   0.1900
      4 C3        -14.5686    13.1729   -13.2016 C.ar       1  LIG1  -0.3000
      5 C4        -15.3461    12.2913   -13.9375 C.ar       1  LIG1   0.1900
      6 O2        -15.4416    10.9899   -13.5579 O.3        1  LIG1  -0.3100
      7 C5        -14.7145    10.5994   -12.3913 C.3        1  LIG1   0.0200
      8 C6        -16.0265    12.7374   -15.0601 C.ar       1  LIG1  -0.1900
      9 C7        -15.9288    14.0667   -15.4478 C.ar       1  LIG1   0.2000
     10 N1        -16.6151    14.5177   -16.5806 N.am       1  LIG1  -0.6400
     11 C8        -16.1152    15.5338   -17.3113 C.2        1  LIG1   0.5000
     12 O3        -15.0704    16.0573   -16.9870 O.2        1  LIG1  -0.5000
     13 C9        -16.8545    16.0195   -18.5315 C.3        1  LIG1  -0.0300
     14 N2        -18.1909    16.4876   -18.1403 N.4        1  LIG1  -0.4900
     15 H1        -18.7028    15.7279   -17.7171 H          1  LIG1   0.4400
     16 H2        -18.1019    17.2434   -17.4778 H          1  LIG1   0.4300
     17 C10       -18.9114    16.9612   -19.3296 C.3        1  LIG1   0.0000
     18 H3        -18.7452    16.3312   -20.2035 H          1  LIG1   0.1700
     19 C11       -18.7220    18.4595   -19.6070 C.3        1  LIG1  -0.1500
     20 H4        -18.4084    19.0720   -18.7616 H          1  LIG1   0.1400
     21 C12       -18.0020    18.7548   -20.9392 C.3        1  LIG1  -0.1500
     22 C13       -19.0087    18.3088   -22.0128 C.3        1  LIG1   0.0400
     23 O4        -20.2880    18.1712   -21.3933 O.3        1  LIG1  -0.3600
     24 C14       -20.2214    18.4963   -19.9855 C.3        1  LIG1   0.0800
     25 H5        -20.7713    19.3937   -19.7018 H          1  LIG1   0.1300
     26 C15       -20.3943    17.2715   -19.0678 C.3        1  LIG1  -0.0900
     27 C16       -21.3343    16.2073   -19.6375 C.3        1  LIG1  -0.1500
     28 C17       -20.7162    17.6344   -17.6166 C.3        1  LIG1  -0.1600
     29 C18       -15.1539    14.9496   -14.7083 C.ar       1  LIG1  -0.2100
     30 H6        -12.4605    15.6260   -11.2410 H          1  LIG1   0.1100
     31 H7        -13.7626    14.4319   -11.0240 H          1  LIG1   0.0600
     32 H8        -12.3552    14.0392   -12.0407 H          1  LIG1   0.0600
     33 H9        -14.0391    12.8249   -12.3270 H          1  LIG1   0.1400
     34 H10       -14.8771     9.5388   -12.2000 H          1  LIG1   0.1100
     35 H11       -13.6514    10.7816   -12.5478 H          1  LIG1   0.0600
     36 H12       -15.0606    11.1801   -11.5362 H          1  LIG1   0.0600
     37 H13       -16.6320    12.0508   -15.6331 H          1  LIG1   0.1400
     38 H14       -17.4509    14.0990   -16.8399 H          1  LIG1   0.4200
     39 H15       -16.3016    16.8401   -18.9887 H          1  LIG1   0.1600
     40 H16       -16.9506    15.2030   -19.2470 H          1  LIG1   0.1700
     41 H17       -17.7915    19.8203   -21.0319 H          1  LIG1   0.1000
     42 H18       -17.0822    18.1747   -21.0133 H          1  LIG1   0.0900
     43 H19       -19.0610    19.0585   -22.8025 H          1  LIG1   0.0900
     44 H20       -18.6987    17.3525   -22.4336 H          1  LIG1   0.0800
     45 H21       -22.3669    16.4814   -19.4213 H          1  LIG1   0.0800
     46 H22       -21.1947    16.1393   -20.7164 H          1  LIG1   0.0600
     47 H23       -21.1110    15.2431   -19.1808 H          1  LIG1   0.0800
     48 H24       -21.7829    17.8380   -17.5212 H          1  LIG1   0.1000
     49 H25       -20.4453    16.8032   -16.9656 H          1  LIG1   0.0700
     50 H26       -20.1501    18.5204   -17.3296 H          1  LIG1   0.0700
     51 H27       -15.0775    15.9840   -15.0093 H          1  LIG1   0.1400
@<TRIPOS>BOND
     1    1    2 1
     2    1   30 1
     3    1   31 1
     4    1   32 1
     5    2    3 1
     6    3   29 ar
     7    3    4 ar
     8    4    5 ar
     9    4   33 1
    10    5    6 1
    11    5    8 ar
    12    6    7 1
    13    7   34 1
    14    7   35 1
    15    7   36 1
    16    8    9 ar
    17    8   37 1
    18    9   10 1
    19    9   29 ar
    20   10   11 am
    21   10   38 1
    22   11   12 2
    23   11   13 1
    24   13   14 1
    25   13   39 1
    26   13   40 1
    27   14   15 1
    28   14   16 1
    29   14   17 1
    30   17   18 1
    31   17   26 1
    32   17   19 1
    33   19   20 1
    34   19   24 1
    35   19   21 1
    36   21   22 1
    37   21   41 1
    38   21   42 1
    39   22   23 1
    40   22   43 1
    41   22   44 1
    42   23   24 1
    43   24   25 1
    44   24   26 1
    45   26   27 1
    46   26   28 1
    47   27   45 1
    48   27   46 1
    49   27   47 1
    50   28   48 1
    51   28   49 1
    52   28   50 1
    53   29   51 1
##########                 Name:     ZINC000035248999
##########          Protonation:                 none
##########               SMILES:   C[NH+](C)CCNC(=O)C1=CC(C2=CC=CC=C2)=NN1C1=CC=CC=C1
##########            Long Name:   NO_LONG_NAME
##########          FlexRecCode: 1
##########               Number:                 1711
##########   Ligand Source File: /nfs/db/export/3D/EF/AARO/EFAARO.xaa.db2.gz
##########                 Rank:                    1
##########               Setnum:                   14
##########             Matchnum:                    1
##########                Cloud:                    1
##########        Electrostatic:           -42.623360
##########                 Gist:             0.000000
##########        Van der Waals:           -37.147110
##########  Ligand Polar Desolv:            21.186104
########## Ligand Apolar Desolv:            -5.962922
##########      Internal Energy:             0.000000
##########      Receptor Energy:             0.000000
########## Receptor Desolvation:             0.000000
########## Receptor Hydrophobic:             0.000000
##########         Total Energy:           -64.547287
##########        Ligand Charge:             1.000000
##########            Arbitrary:    +999.9990
##########        Ligand Energy:             0.000000

@<TRIPOS>MOLECULE
 ZINC000035248999      none
   48    50     0     0     0



@<TRIPOS>ATOM
      1 C1        -21.4728    16.1284   -18.0150 C.3        1  LIG1  -0.0600
      2 N1        -20.0980    16.4692   -18.4048 N.4        1  LIG1  -0.3800
      3 H1        -19.4504    15.8811   -17.9020 H          1  LIG1   0.4300
      4 C2        -19.9318    16.2581   -19.8489 C.3        1  LIG1  -0.0500
      5 C3        -19.8326    17.8775   -18.0819 C.3        1  LIG1  -0.0200
      6 C4        -18.4007    18.2325   -18.4875 C.3        1  LIG1   0.1000
      7 N2        -17.4604    17.3785   -17.7575 N.am       1  LIG1  -0.7200
      8 C5        -16.9798    17.7737   -16.5619 C.2        1  LIG1   0.6000
      9 O1        -17.3267    18.8393   -16.0890 O.2        1  LIG1  -0.5100
     10 C6        -16.0357    16.9160   -15.8289 C.2        1  LIG1  -0.0500
     11 C7        -16.2594    15.6241   -15.3909 C.2        1  LIG1  -0.1600
     12 C8        -15.0675    15.2371   -14.7510 C.2        1  LIG1   0.0800
     13 C9        -14.8038    13.9255   -14.1086 C.ar       1  LIG1  -0.0200
     14 C10       -13.9354    13.8411   -13.0224 C.ar       1  LIG1  -0.1000
     15 C11       -13.6937    12.6187   -12.4286 C.ar       1  LIG1  -0.1200
     16 C12       -14.3117    11.4788   -12.9103 C.ar       1  LIG1  -0.1100
     17 C13       -15.1743    11.5569   -13.9887 C.ar       1  LIG1  -0.1200
     18 C14       -15.4280    12.7751   -14.5860 C.ar       1  LIG1  -0.0900
     19 N3        -14.2281    16.2493   -14.8258 N.2        1  LIG1  -0.2500
     20 N4        -14.7596    17.2375   -15.4507 N.pl3      1  LIG1  -0.2000
     21 C15       -14.1313    18.4630   -15.6998 C.ar       1  LIG1   0.1100
     22 C16       -13.1656    18.9410   -14.8231 C.ar       1  LIG1  -0.0700
     23 C17       -12.5477    20.1508   -15.0718 C.ar       1  LIG1  -0.1100
     24 C18       -12.8888    20.8858   -16.1923 C.ar       1  LIG1  -0.1000
     25 C19       -13.8499    20.4130   -17.0669 C.ar       1  LIG1  -0.1100
     26 C20       -14.4677    19.2013   -16.8272 C.ar       1  LIG1  -0.0900
     27 H2        -22.1724    16.7637   -18.5583 H          1  LIG1   0.1300
     28 H3        -21.6699    15.0835   -18.2544 H          1  LIG1   0.1300
     29 H4        -21.5962    16.2854   -16.9436 H          1  LIG1   0.1300
     30 H5        -18.9117    16.5111   -20.1380 H          1  LIG1   0.1200
     31 H6        -20.1288    15.2131   -20.0885 H          1  LIG1   0.1300
     32 H7        -20.6314    16.8936   -20.3919 H          1  LIG1   0.1300
     33 H8        -20.5322    18.5129   -18.6249 H          1  LIG1   0.1400
     34 H9        -19.9561    18.0341   -17.0102 H          1  LIG1   0.1400
     35 H10       -18.2772    18.0760   -19.5590 H          1  LIG1   0.0900
     36 H11       -18.2037    19.2774   -18.2477 H          1  LIG1   0.0900
     37 H12       -17.1837    16.5287   -18.1346 H          1  LIG1   0.4100
     38 H13       -17.1575    15.0371   -15.5137 H          1  LIG1   0.1700
     39 H14       -13.4521    14.7304   -12.6457 H          1  LIG1   0.1200
     40 H15       -13.0205    12.5521   -11.5868 H          1  LIG1   0.1300
     41 H16       -14.1197    10.5243   -12.4429 H          1  LIG1   0.1300
     42 H17       -15.6537    10.6636   -14.3612 H          1  LIG1   0.1300
     43 H18       -16.1018    12.8349   -15.4280 H          1  LIG1   0.1300
     44 H19       -12.8989    18.3674   -13.9478 H          1  LIG1   0.1200
     45 H20       -11.7971    20.5231   -14.3902 H          1  LIG1   0.1300
     46 H21       -12.4039    21.8316   -16.3841 H          1  LIG1   0.1300
     47 H22       -14.1145    20.9897   -17.9409 H          1  LIG1   0.1400
     48 H23       -15.2178    18.8322   -17.5110 H          1  LIG1   0.1300
@<TRIPOS>BOND
     1    1    2 1
     2    1   27 1
     3    1   28 1
     4    1   29 1
     5    2    3 1
     6    2    4 1
     7    2    5 1
     8    4   30 1
     9    4   31 1
    10    4   32 1
    11    5    6 1
    12    5   33 1
    13    5   34 1
    14    6    7 1
    15    6   35 1
    16    6   36 1
    17    7    8 am
    18    7   37 1
    19    8    9 2
    20    8   10 1
    21   10   20 1
    22   10   11 2
    23   11   12 1
    24   11   38 1
    25   12   13 1
    26   12   19 2
    27   13   18 ar
    28   13   14 ar
    29   14   15 ar
    30   14   39 1
    31   15   16 ar
    32   15   40 1
    33   16   17 ar
    34   16   41 1
    35   17   18 ar
    36   17   42 1
    37   18   43 1
    38   19   20 1
    39   20   21 1
    40   21   26 ar
    41   21   22 ar
    42   22   23 ar
    43   22   44 1
    44   23   24 ar
    45   23   45 1
    46   24   25 ar
    47   24   46 1
    48   25   26 ar
    49   25   47 1
    50   26   48 1
##########                 Name:     ZINC000481348054
##########          Protonation:                 none
##########               SMILES:   C[N@@H+](CC#CC1=CC=CC=C1Cl)C[C@H]1CCCC[C@H]1O
##########            Long Name:   NO_LONG_NAME
##########          FlexRecCode: 1
##########               Number:                 5574
##########   Ligand Source File: /nfs/db/export/3D/CG/EDMO/CGEDMO.xap.db2.gz
##########                 Rank:                    1
##########               Setnum:                    6
##########             Matchnum:                    1
##########                Cloud:                    1
##########        Electrostatic:           -39.240540
##########                 Gist:             0.000000
##########        Van der Waals:           -29.779011
##########  Ligand Polar Desolv:            11.626725
########## Ligand Apolar Desolv:            -6.170372
##########      Internal Energy:             0.000000
##########      Receptor Energy:             0.000000
########## Receptor Desolvation:             0.000000
########## Receptor Hydrophobic:             0.000000
##########         Total Energy:           -63.563194
##########        Ligand Charge:             1.000000
##########            Arbitrary:    +999.9990
##########        Ligand Energy:             0.000000

@<TRIPOS>MOLECULE
 ZINC000481348054      none
   43    44     0     0     0



@<TRIPOS>ATOM
      1 C1        -17.2529    15.5045   -19.2174 C.3        1  LIG1  -0.0500
      2 N1        -17.8390    16.3265   -18.1502 N.4        1  LIG1  -0.3900
      3 H1        -18.4380    15.7535   -17.5749 H          1  LIG1   0.4300
      4 C2        -16.7653    16.8953   -17.3247 C.3        1  LIG1   0.1400
      5 C3        -16.2905    15.8806   -16.3699 C.1        1  LIG1  -0.2600
      6 C4        -15.9117    15.0712   -15.6085 C.1        1  LIG1   0.0000
      7 C5        -15.4497    14.0840   -14.6797 C.ar       1  LIG1  -0.0300
      8 C6        -16.0173    12.8098   -14.6715 C.ar       1  LIG1  -0.0700
      9 C7        -15.5677    11.8629   -13.7740 C.ar       1  LIG1  -0.1100
     10 C8        -14.5566    12.1745   -12.8829 C.ar       1  LIG1  -0.0700
     11 C9        -13.9891    13.4362   -12.8845 C.ar       1  LIG1  -0.1100
     12 C10       -14.4248    14.3910   -13.7817 C.ar       1  LIG1   0.0000
     13 Cl1       -13.7119    15.9739   -13.7828 Cl         1  LIG1  -0.0500
     14 C11       -18.6267    17.4137   -18.7463 C.3        1  LIG1   0.0000
     15 C12       -19.9938    16.8771   -19.1751 C.3        1  LIG1  -0.1000
     16 H2        -19.8746    15.8854   -19.6112 H          1  LIG1   0.1000
     17 C13       -20.9132    16.7906   -17.9552 C.3        1  LIG1  -0.1300
     18 C14       -22.2804    16.2540   -18.3839 C.3        1  LIG1  -0.1200
     19 C15       -22.8958    17.1962   -19.4205 C.3        1  LIG1  -0.1200
     20 C16       -21.9765    17.2828   -20.6404 C.3        1  LIG1  -0.1600
     21 C17       -20.6092    17.8194   -20.2116 C.3        1  LIG1   0.1200
     22 H3        -19.9543    17.8811   -21.0808 H          1  LIG1   0.0700
     23 O1        -20.7659    19.1196   -19.6399 O.3        1  LIG1  -0.5700
     24 H4        -16.6058    16.1233   -19.8389 H          1  LIG1   0.1300
     25 H5        -16.6684    14.6976   -18.7750 H          1  LIG1   0.1200
     26 H6        -18.0495    15.0824   -19.8300 H          1  LIG1   0.1300
     27 H7        -15.9400    17.2057   -17.9654 H          1  LIG1   0.1500
     28 H8        -17.1457    17.7584   -16.7782 H          1  LIG1   0.1500
     29 H9        -16.8073    12.5648   -15.3661 H          1  LIG1   0.1400
     30 H10       -16.0065    10.8761   -13.7670 H          1  LIG1   0.1400
     31 H11       -14.2090    11.4296   -12.1824 H          1  LIG1   0.1500
     32 H12       -13.2005    13.6733   -12.1857 H          1  LIG1   0.1500
     33 H13       -18.7621    18.2086   -18.0130 H          1  LIG1   0.1400
     34 H14       -18.1019    17.8078   -19.6165 H          1  LIG1   0.1300
     35 H15       -20.4749    16.1194   -17.2166 H          1  LIG1   0.0500
     36 H16       -21.0326    17.7825   -17.5191 H          1  LIG1   0.0900
     37 H17       -22.1611    15.2623   -18.8201 H          1  LIG1   0.0700
     38 H18       -22.9355    16.1924   -17.5149 H          1  LIG1   0.0700
     39 H19       -23.8698    16.8140   -19.7260 H          1  LIG1   0.0700
     40 H20       -23.0152    18.1880   -18.9845 H          1  LIG1   0.0700
     41 H21       -21.8571    16.2911   -21.0766 H          1  LIG1   0.0800
     42 H22       -22.4149    17.9541   -21.3789 H          1  LIG1   0.0800
     43 H23       -19.9374    19.5219   -19.3449 H          1  LIG1   0.3900
@<TRIPOS>BOND
     1    1    2 1
     2    1   24 1
     3    1   25 1
     4    1   26 1
     5    2    3 1
     6    2    4 1
     7    2   14 1
     8    4    5 1
     9    4   27 1
    10    4   28 1
    11    5    6 3
    12    6    7 1
    13    7   12 ar
    14    7    8 ar
    15    8    9 ar
    16    8   29 1
    17    9   10 ar
    18    9   30 1
    19   10   11 ar
    20   10   31 1
    21   11   12 ar
    22   11   32 1
    23   12   13 1
    24   14   15 1
    25   14   33 1
    26   14   34 1
    27   15   16 1
    28   15   21 1
    29   15   17 1
    30   17   18 1
    31   17   35 1
    32   17   36 1
    33   18   19 1
    34   18   37 1
    35   18   38 1
    36   19   20 1
    37   19   39 1
    38   19   40 1
    39   20   21 1
    40   20   41 1
    41   20   42 1
    42   21   22 1
    43   21   23 1
    44   23   43 1
##########                 Name:     ZINC000360754452
##########          Protonation:                 none
##########               SMILES:   CNC(=O)C[C@@H]([NH2+]C/C=C/C1=CC=CC=C1)C1=CC=CC=C1
##########            Long Name:   NO_LONG_NAME
##########          FlexRecCode: 1
##########               Number:                11227
##########   Ligand Source File: /nfs/db/export/3D/CG/ADRO/CGADRO.xblh.db2.gz
##########                 Rank:                    1
##########               Setnum:                   13
##########             Matchnum:                    1
##########                Cloud:                    1
##########        Electrostatic:           -40.471077
##########                 Gist:             0.000000
##########        Van der Waals:           -27.758896
##########  Ligand Polar Desolv:            11.571641
########## Ligand Apolar Desolv:            -5.725280
##########      Internal Energy:             0.000000
##########      Receptor Energy:             0.000000
########## Receptor Desolvation:             0.000000
########## Receptor Hydrophobic:             0.000000
##########         Total Energy:           -62.383614
##########        Ligand Charge:             1.000000
##########            Arbitrary:    +999.9990
##########        Ligand Energy:             0.000000

@<TRIPOS>MOLECULE
 ZINC000360754452      none
   45    46     0     0     0



@<TRIPOS>ATOM
      1 C1        -20.4717    20.0838   -21.8193 C.3        1  LIG1   0.0800
      2 N1        -19.8123    19.6447   -20.5869 N.am       1  LIG1  -0.7100
      3 C2        -18.8421    18.7105   -20.6378 C.2        1  LIG1   0.5000
      4 O1        -18.5150    18.2333   -21.7037 O.2        1  LIG1  -0.5500
      5 C3        -18.1639    18.2588   -19.3701 C.3        1  LIG1  -0.1700
      6 C4        -18.3796    16.7556   -19.1839 C.3        1  LIG1   0.1000
      7 H1        -17.9560    16.2199   -20.0334 H          1  LIG1   0.1500
      8 N2        -17.7184    16.3155   -17.9482 N.4        1  LIG1  -0.5000
      9 H2        -17.8543    17.0093   -17.2284 H          1  LIG1   0.4400
     10 H3        -18.1155    15.4376   -17.6486 H          1  LIG1   0.4200
     11 C5        -16.2808    16.1430   -18.1968 C.3        1  LIG1   0.0400
     12 C6        -15.6025    15.6915   -16.9292 C.2        1  LIG1  -0.2500
     13 C7        -15.9662    14.5551   -16.3514 C.2        1  LIG1  -0.0200
     14 C8        -15.3007    14.1122   -15.1080 C.ar       1  LIG1  -0.1000
     15 C9        -14.0501    14.6248   -14.7618 C.ar       1  LIG1  -0.1000
     16 C10       -13.4342    14.2073   -13.5998 C.ar       1  LIG1  -0.1200
     17 C11       -14.0540    13.2820   -12.7791 C.ar       1  LIG1  -0.1000
     18 C12       -15.2939    12.7697   -13.1169 C.ar       1  LIG1  -0.1200
     19 C13       -15.9233    13.1839   -14.2726 C.ar       1  LIG1  -0.0900
     20 C14       -19.8560    16.4673   -19.0938 C.ar       1  LIG1  -0.1400
     21 C15       -20.4892    16.4814   -17.8651 C.ar       1  LIG1  -0.1200
     22 C16       -21.8436    16.2169   -17.7825 C.ar       1  LIG1  -0.1000
     23 C17       -22.5647    15.9389   -18.9286 C.ar       1  LIG1  -0.0900
     24 C18       -21.9316    15.9257   -20.1574 C.ar       1  LIG1  -0.1000
     25 C19       -20.5781    16.1944   -20.2406 C.ar       1  LIG1  -0.0900
     26 H4        -21.2224    20.8374   -21.5810 H          1  LIG1   0.0700
     27 H5        -19.7309    20.5101   -22.4957 H          1  LIG1   0.0700
     28 H6        -20.9525    19.2306   -22.2979 H          1  LIG1   0.0900
     29 H7        -20.0740    20.0263   -19.7344 H          1  LIG1   0.4100
     30 H8        -17.0959    18.4674   -19.4354 H          1  LIG1   0.1200
     31 H9        -18.5874    18.7947   -18.5206 H          1  LIG1   0.1400
     32 H10       -16.1339    15.3935   -18.9744 H          1  LIG1   0.1300
     33 H11       -15.8519    17.0914   -18.5206 H          1  LIG1   0.1400
     34 H12       -14.8200    16.2935   -16.4915 H          1  LIG1   0.1400
     35 H13       -16.7486    13.9530   -16.7892 H          1  LIG1   0.1300
     36 H14       -13.5648    15.3467   -15.4022 H          1  LIG1   0.1200
     37 H15       -12.4662    14.6033   -13.3308 H          1  LIG1   0.1300
     38 H16       -13.5676    12.9581   -11.8708 H          1  LIG1   0.1300
     39 H17       -15.7720    12.0471   -12.4721 H          1  LIG1   0.1300
     40 H18       -16.8913    12.7834   -14.5350 H          1  LIG1   0.1300
     41 H19       -19.9258    16.6986   -16.9697 H          1  LIG1   0.1200
     42 H20       -22.3381    16.2271   -16.8224 H          1  LIG1   0.1400
     43 H21       -23.6226    15.7316   -18.8640 H          1  LIG1   0.1400
     44 H22       -22.4950    15.7082   -21.0528 H          1  LIG1   0.1400
     45 H23       -20.0836    16.1841   -21.2005 H          1  LIG1   0.1400
@<TRIPOS>BOND
     1    1    2 1
     2    1   26 1
     3    1   27 1
     4    1   28 1
     5    2    3 am
     6    2   29 1
     7    3    4 2
     8    3    5 1
     9    5    6 1
    10    5   30 1
    11    5   31 1
    12    6    7 1
    13    6    8 1
    14    6   20 1
    15    8    9 1
    16    8   10 1
    17    8   11 1
    18   11   12 1
    19   11   32 1
    20   11   33 1
    21   12   13 2
    22   12   34 1
    23   13   14 1
    24   13   35 1
    25   14   19 ar
    26   14   15 ar
    27   15   16 ar
    28   15   36 1
    29   16   17 ar
    30   16   37 1
    31   17   18 ar
    32   17   38 1
    33   18   19 ar
    34   18   39 1
    35   19   40 1
    36   20   25 ar
    37   20   21 ar
    38   21   22 ar
    39   21   41 1
    40   22   23 ar
    41   22   42 1
    42   23   24 ar
    43   23   43 1
    44   24   25 ar
    45   24   44 1
    46   25   45 1
##########                 Name:     ZINC000295544199
##########          Protonation:                 none
##########               SMILES:   O=C(N[C@H]1CCC[N@H+](CCCO)C1)C1=NN(C2=CC=CC=C2)C=C1
##########            Long Name:   NO_LONG_NAME
##########          FlexRecCode: 1
##########               Number:                 5373
##########   Ligand Source File: /nfs/db/export/3D/ED/ADMO/EDADMO.xavn.db2.gz
##########                 Rank:                    1
##########               Setnum:                  153
##########             Matchnum:                    1
##########                Cloud:                    1
##########        Electrostatic:           -39.522392
##########                 Gist:             0.000000
##########        Van der Waals:           -37.268116
##########  Ligand Polar Desolv:            17.587763
########## Ligand Apolar Desolv:            -3.446711
##########      Internal Energy:             0.000000
##########      Receptor Energy:             0.000000
########## Receptor Desolvation:             0.000000
########## Receptor Hydrophobic:             0.000000
##########         Total Energy:           -62.649460
##########        Ligand Charge:             1.000000
##########            Arbitrary:    +999.9990
##########        Ligand Energy:             0.000000

@<TRIPOS>MOLECULE
 ZINC000295544199      none
   49    51     0     0     0



@<TRIPOS>ATOM
      1 O1        -15.3616    18.7775   -16.5194 O.2        1  LIG1  -0.5000
      2 C1        -15.7905    17.6499   -16.3688 C.2        1  LIG1   0.6200
      3 N1        -16.8777    17.2452   -17.0549 N.am       1  LIG1  -0.7400
      4 C2        -17.5343    18.1526   -17.9705 C.3        1  LIG1   0.1300
      5 H1        -17.3856    19.1991   -17.5865 H          1  LIG1   0.1400
      6 C3        -16.9079    18.0769   -19.3656 C.3        1  LIG1  -0.1500
      7 C4        -17.2559    16.7737   -20.0821 C.3        1  LIG1  -0.1500
      8 C5        -18.7571    16.5284   -20.1120 C.3        1  LIG1  -0.0100
      9 N2        -19.2999    16.5623   -18.7038 N.4        1  LIG1  -0.3900
     10 H2        -18.7836    15.8341   -18.1613 H          1  LIG1   0.4200
     11 C6        -20.7577    16.1954   -18.6619 C.3        1  LIG1  -0.0100
     12 C7        -21.5574    17.1856   -19.5109 C.3        1  LIG1  -0.1500
     13 C8        -23.0406    16.8123   -19.4683 C.3        1  LIG1   0.0800
     14 O2        -23.2144    15.4918   -19.9864 O.3        1  LIG1  -0.5700
     15 C9        -19.0378    17.8866   -18.0215 C.3        1  LIG1  -0.0100
     16 C10       -15.1167    16.7217   -15.4388 C.2        1  LIG1  -0.0200
     17 N3        -15.4675    15.4766   -15.1836 N.2        1  LIG1  -0.2700
     18 N4        -14.6638    14.9579   -14.3260 N.pl3      1  LIG1  -0.2200
     19 C11       -14.7499    13.6485   -13.8346 C.ar       1  LIG1   0.1200
     20 C12       -13.8272    13.1932   -12.9022 C.ar       1  LIG1  -0.1200
     21 C13       -13.9146    11.9020   -12.4198 C.ar       1  LIG1  -0.0900
     22 C14       -14.9195    11.0628   -12.8647 C.ar       1  LIG1  -0.1100
     23 C15       -15.8400    11.5132   -13.7932 C.ar       1  LIG1  -0.1000
     24 C16       -15.7616    12.8053   -14.2748 C.ar       1  LIG1  -0.1100
     25 C17       -13.7181    15.8641   -13.9654 C.2        1  LIG1  -0.0100
     26 C18       -13.9693    16.9995   -14.6580 C.2        1  LIG1  -0.1600
     27 H3        -17.2198    16.3455   -16.9348 H          1  LIG1   0.4000
     28 H4        -17.2618    18.9307   -19.9683 H          1  LIG1   0.1000
     29 H5        -15.8115    18.1625   -19.2755 H          1  LIG1   0.1000
     30 H6        -16.8709    16.8135   -21.1142 H          1  LIG1   0.1200
     31 H7        -16.7581    15.9341   -19.5698 H          1  LIG1   0.0900
     32 H8        -19.2543    17.3028   -20.6882 H          1  LIG1   0.1300
     33 H9        -18.9714    15.5525   -20.5370 H          1  LIG1   0.1300
     34 H10       -20.8903    15.1881   -19.0570 H          1  LIG1   0.1300
     35 H11       -21.1119    16.2311   -17.6317 H          1  LIG1   0.1400
     36 H12       -21.4247    18.1928   -19.1159 H          1  LIG1   0.1000
     37 H13       -21.2031    17.1498   -20.5412 H          1  LIG1   0.0900
     38 H14       -23.3948    16.8480   -18.4381 H          1  LIG1   0.0600
     39 H15       -23.6102    17.5177   -20.0732 H          1  LIG1   0.0600
     40 H16       -22.7343    14.8106   -19.4956 H          1  LIG1   0.4000
     41 H17       -19.4452    17.8393   -17.0157 H          1  LIG1   0.1400
     42 H18       -19.5373    18.6675   -18.5880 H          1  LIG1   0.1500
     43 H19       -13.0416    13.8480   -12.5549 H          1  LIG1   0.1400
     44 H20       -13.1972    11.5474   -11.6946 H          1  LIG1   0.1400
     45 H21       -14.9855    10.0534   -12.4865 H          1  LIG1   0.1400
     46 H22       -16.6238    10.8554   -14.1388 H          1  LIG1   0.1400
     47 H23       -16.4807    13.1566   -14.9999 H          1  LIG1   0.1300
     48 H24       -12.9139    15.7065   -13.2617 H          1  LIG1   0.1900
     49 H25       -13.4150    17.9255   -14.6179 H          1  LIG1   0.1700
@<TRIPOS>BOND
     1    1    2 2
     2    2    3 am
     3    2   16 1
     4    3    4 1
     5    3   27 1
     6    4    5 1
     7    4   15 1
     8    4    6 1
     9    6    7 1
    10    6   28 1
    11    6   29 1
    12    7    8 1
    13    7   30 1
    14    7   31 1
    15    8    9 1
    16    8   32 1
    17    8   33 1
    18    9   10 1
    19    9   11 1
    20    9   15 1
    21   11   12 1
    22   11   34 1
    23   11   35 1
    24   12   13 1
    25   12   36 1
    26   12   37 1
    27   13   14 1
    28   13   38 1
    29   13   39 1
    30   14   40 1
    31   15   41 1
    32   15   42 1
    33   16   26 1
    34   16   17 2
    35   17   18 1
    36   18   19 1
    37   18   25 1
    38   19   24 ar
    39   19   20 ar
    40   20   21 ar
    41   20   43 1
    42   21   22 ar
    43   21   44 1
    44   22   23 ar
    45   22   45 1
    46   23   24 ar
    47   23   46 1
    48   24   47 1
    49   25   26 2
    50   25   48 1
    51   26   49 1
##########                 Name:     ZINC000502874123
##########          Protonation:                 none
##########               SMILES:   CC1=CC=CC=C1CCC(=O)NCC(C)(C)[NH+]1CCCCC1
##########            Long Name:   NO_LONG_NAME
##########          FlexRecCode: 1
##########               Number:                 8239
##########   Ligand Source File: /nfs/db/export/3D/DG/ADRO/DGADRO.xaoi.db2.gz
##########                 Rank:                    1
##########               Setnum:                  188
##########             Matchnum:                    1
##########                Cloud:                    1
##########        Electrostatic:           -40.011040
##########                 Gist:             0.000000
##########        Van der Waals:           -32.135086
##########  Ligand Polar Desolv:            13.302109
########## Ligand Apolar Desolv:            -6.258697
##########      Internal Energy:             0.000000
##########      Receptor Energy:             0.000000
########## Receptor Desolvation:             0.000000
########## Receptor Hydrophobic:             0.000000
##########         Total Energy:           -65.102715
##########        Ligand Charge:             1.000000
##########            Arbitrary:    +999.9990
##########        Ligand Energy:             0.000000

@<TRIPOS>MOLECULE
 ZINC000502874123      none
   53    54     0     0     0



@<TRIPOS>ATOM
      1 C1        -13.0719    15.3974   -12.6211 C.3        1  LIG1  -0.1200
      2 C2        -13.7533    14.0904   -12.9351 C.ar       1  LIG1  -0.0800
      3 C3        -13.4910    12.9721   -12.1664 C.ar       1  LIG1  -0.1200
      4 C4        -14.1161    11.7730   -12.4545 C.ar       1  LIG1  -0.1100
      5 C5        -15.0035    11.6926   -13.5110 C.ar       1  LIG1  -0.1200
      6 C6        -15.2666    12.8115   -14.2795 C.ar       1  LIG1  -0.1100
      7 C7        -14.6450    14.0113   -13.9888 C.ar       1  LIG1  -0.0900
      8 C8        -14.9316    15.2308   -14.8264 C.3        1  LIG1  -0.0700
      9 C9        -16.4400    15.3511   -15.0527 C.3        1  LIG1  -0.1400
     10 C10       -16.7266    16.5706   -15.8903 C.2        1  LIG1   0.5200
     11 O1        -16.4014    17.6693   -15.4931 O.2        1  LIG1  -0.5100
     12 N1        -17.3444    16.4403   -17.0811 N.am       1  LIG1  -0.7500
     13 C11       -17.6229    17.6258   -17.8955 C.3        1  LIG1   0.1000
     14 C12       -18.3249    17.2033   -19.1876 C.3        1  LIG1   0.0500
     15 C13       -18.6159    18.4415   -20.0382 C.3        1  LIG1  -0.1800
     16 C14       -17.4215    16.2479   -19.9701 C.3        1  LIG1  -0.1800
     17 N2        -19.5869    16.5264   -18.8606 N.4        1  LIG1  -0.3800
     18 H1        -19.3940    15.7101   -18.2997 H          1  LIG1   0.4100
     19 C15       -20.2574    16.1186   -20.1010 C.3        1  LIG1  -0.0200
     20 C16       -21.5322    15.3418   -19.7645 C.3        1  LIG1  -0.1400
     21 C17       -22.4680    16.2367   -18.9469 C.3        1  LIG1  -0.1400
     22 C18       -21.7325    16.7164   -17.6922 C.3        1  LIG1  -0.1400
     23 C19       -20.4511    17.4429   -18.1071 C.3        1  LIG1  -0.0200
     24 H2        -12.4105    15.2657   -11.7647 H          1  LIG1   0.0700
     25 H3        -12.4891    15.7198   -13.4840 H          1  LIG1   0.0700
     26 H4        -13.8231    16.1519   -12.3875 H          1  LIG1   0.0600
     27 H5        -12.7976    13.0349   -11.3408 H          1  LIG1   0.1200
     28 H6        -13.9106    10.8991   -11.8542 H          1  LIG1   0.1200
     29 H7        -15.4913    10.7559   -13.7365 H          1  LIG1   0.1200
     30 H8        -15.9598    12.7487   -15.1053 H          1  LIG1   0.1200
     31 H9        -14.5696    16.1198   -14.3098 H          1  LIG1   0.0800
     32 H10       -14.4263    15.1382   -15.7878 H          1  LIG1   0.0800
     33 H11       -16.8019    14.4621   -15.5693 H          1  LIG1   0.1000
     34 H12       -16.9453    15.4436   -14.0913 H          1  LIG1   0.1000
     35 H13       -17.6045    15.5615   -17.3989 H          1  LIG1   0.4000
     36 H14       -18.2665    18.3064   -17.3382 H          1  LIG1   0.0900
     37 H15       -16.6865    18.1280   -18.1382 H          1  LIG1   0.1100
     38 H16       -19.1160    18.1406   -20.9587 H          1  LIG1   0.1100
     39 H17       -19.2593    19.1222   -19.4808 H          1  LIG1   0.0900
     40 H18       -17.6794    18.9437   -20.2809 H          1  LIG1   0.0900
     41 H19       -17.9218    15.9470   -20.8906 H          1  LIG1   0.0800
     42 H20       -16.4852    16.7503   -20.2128 H          1  LIG1   0.0900
     43 H21       -17.2143    15.3659   -19.3641 H          1  LIG1   0.1100
     44 H22       -20.5149    17.0040   -20.6823 H          1  LIG1   0.1300
     45 H23       -19.5890    15.4843   -20.6833 H          1  LIG1   0.1300
     46 H24       -22.0295    15.0415   -20.6868 H          1  LIG1   0.1100
     47 H25       -21.2759    14.4560   -19.1833 H          1  LIG1   0.0900
     48 H26       -22.7654    17.0972   -19.5464 H          1  LIG1   0.0800
     49 H27       -23.3527    15.6701   -18.6565 H          1  LIG1   0.1000
     50 H28       -22.3730    17.3986   -17.1333 H          1  LIG1   0.1100
     51 H29       -21.4804    15.8592   -17.0681 H          1  LIG1   0.0900
     52 H30       -19.9242    17.7862   -17.2168 H          1  LIG1   0.1300
     53 H31       -20.7054    18.2998   -18.7308 H          1  LIG1   0.1300
@<TRIPOS>BOND
     1    1    2 1
     2    1   24 1
     3    1   25 1
     4    1   26 1
     5    2    7 ar
     6    2    3 ar
     7    3    4 ar
     8    3   27 1
     9    4    5 ar
    10    4   28 1
    11    5    6 ar
    12    5   29 1
    13    6    7 ar
    14    6   30 1
    15    7    8 1
    16    8    9 1
    17    8   31 1
    18    8   32 1
    19    9   10 1
    20    9   33 1
    21    9   34 1
    22   10   11 2
    23   10   12 am
    24   12   13 1
    25   12   35 1
    26   13   14 1
    27   13   36 1
    28   13   37 1
    29   14   15 1
    30   14   16 1
    31   14   17 1
    32   15   38 1
    33   15   39 1
    34   15   40 1
    35   16   41 1
    36   16   42 1
    37   16   43 1
    38   17   18 1
    39   17   23 1
    40   17   19 1
    41   19   20 1
    42   19   44 1
    43   19   45 1
    44   20   21 1
    45   20   46 1
    46   20   47 1
    47   21   22 1
    48   21   48 1
    49   21   49 1
    50   22   23 1
    51   22   50 1
    52   22   51 1
    53   23   52 1
    54   23   53 1
##########                 Name:     ZINC000488122559
##########          Protonation:                 none
##########               SMILES:   C[C@H]1C[N@H+](CC2=CN=CC(OCC3=CC=CC=C3)=C2)C[C@@H]1O
##########            Long Name:   NO_LONG_NAME
##########          FlexRecCode: 1
##########               Number:                 3430
##########   Ligand Source File: /nfs/db/export/3D/CE/ADRO/CEADRO.xbjd.db2.gz
##########                 Rank:                    1
##########               Setnum:                  204
##########             Matchnum:                    1
##########                Cloud:                    1
##########        Electrostatic:           -43.038174
##########                 Gist:             0.000000
##########        Van der Waals:           -31.960773
##########  Ligand Polar Desolv:            15.081690
########## Ligand Apolar Desolv:            -4.593662
##########      Internal Energy:             0.000000
##########      Receptor Energy:             0.000000
########## Receptor Desolvation:             0.000000
########## Receptor Hydrophobic:             0.000000
##########         Total Energy:           -64.510918
##########        Ligand Charge:             1.000000
##########            Arbitrary:    +999.9990
##########        Ligand Energy:             0.000000

@<TRIPOS>MOLECULE
 ZINC000488122559      none
   45    47     0     0     0



@<TRIPOS>ATOM
      1 C1        -22.0140    16.5500   -17.9037 C.3        1  LIG1  -0.1600
      2 C2        -21.0605    17.5657   -18.5310 C.3        1  LIG1  -0.1100
      3 H1        -21.3888    18.5902   -18.3052 H          1  LIG1   0.1300
      4 C3        -19.6239    17.3694   -18.0618 C.3        1  LIG1   0.0000
      5 N1        -19.0992    16.2623   -18.9499 N.4        1  LIG1  -0.3900
      6 H2        -19.3054    15.3395   -18.4514 H          1  LIG1   0.4300
      7 C4        -17.6210    16.3155   -19.1691 C.3        1  LIG1   0.0600
      8 C5        -16.9354    16.6922   -17.8811 C.ar       1  LIG1  -0.1800
      9 C6        -16.7073    18.0200   -17.5729 C.ar       1  LIG1   0.0900
     10 N2        -16.1083    18.3609   -16.4486 N.ar       1  LIG1  -0.4400
     11 C7        -15.7043    17.4591   -15.5762 C.ar       1  LIG1   0.0500
     12 C8        -15.8980    16.1062   -15.8152 C.ar       1  LIG1   0.0900
     13 O1        -15.4793    15.1800   -14.9131 O.3        1  LIG1  -0.3000
     14 C9        -15.7165    13.8079   -15.2343 C.3        1  LIG1   0.1000
     15 C10       -15.1885    12.9340   -14.1259 C.ar       1  LIG1  -0.1100
     16 C11       -15.7849    11.7149   -13.8633 C.ar       1  LIG1  -0.0900
     17 C12       -15.3005    10.9133   -12.8465 C.ar       1  LIG1  -0.1200
     18 C13       -14.2195    11.3306   -12.0928 C.ar       1  LIG1  -0.1000
     19 C14       -13.6226    12.5493   -12.3560 C.ar       1  LIG1  -0.1200
     20 C15       -14.1042    13.3490   -13.3755 C.ar       1  LIG1  -0.0900
     21 C16       -16.5314    15.7115   -16.9892 C.ar       1  LIG1  -0.0900
     22 C17       -19.9228    16.2642   -20.2297 C.3        1  LIG1  -0.0400
     23 C18       -20.9363    17.3859   -20.0414 C.3        1  LIG1   0.0900
     24 H3        -21.8902    17.1363   -20.4841 H          1  LIG1   0.1000
     25 O2        -20.4229    18.5885   -20.6110 O.3        1  LIG1  -0.5400
     26 H4        -21.6745    15.5407   -18.1368 H          1  LIG1   0.0600
     27 H5        -22.0308    16.6870   -16.8225 H          1  LIG1   0.0800
     28 H6        -23.0169    16.6975   -18.3043 H          1  LIG1   0.0800
     29 H7        -19.0320    18.2677   -18.2140 H          1  LIG1   0.1400
     30 H8        -19.5870    17.0501   -17.0239 H          1  LIG1   0.1400
     31 H9        -17.2669    15.3380   -19.4968 H          1  LIG1   0.1400
     32 H10       -17.3935    17.0590   -19.9329 H          1  LIG1   0.1500
     33 H11       -17.0237    18.7888   -18.2624 H          1  LIG1   0.1700
     34 H12       -15.2173    17.7767   -14.6661 H          1  LIG1   0.1700
     35 H13       -16.7876    13.6416   -15.3493 H          1  LIG1   0.0800
     36 H14       -15.2083    13.5597   -16.1660 H          1  LIG1   0.0800
     37 H15       -16.6295    11.3888   -14.4521 H          1  LIG1   0.1200
     38 H16       -15.7668     9.9611   -12.6408 H          1  LIG1   0.1300
     39 H17       -13.8415    10.7047   -11.2980 H          1  LIG1   0.1300
     40 H18       -12.7782    12.8756   -11.7669 H          1  LIG1   0.1300
     41 H19       -13.6378    14.3012   -13.5812 H          1  LIG1   0.1300
     42 H20       -16.6969    14.6663   -17.2040 H          1  LIG1   0.1500
     43 H21       -19.2664    16.4589   -21.0774 H          1  LIG1   0.1400
     44 H22       -20.4134    15.2975   -20.3409 H          1  LIG1   0.1300
     45 H23       -19.5515    18.8414   -20.2765 H          1  LIG1   0.4000
@<TRIPOS>BOND
     1    1    2 1
     2    1   26 1
     3    1   27 1
     4    1   28 1
     5    2    3 1
     6    2   23 1
     7    2    4 1
     8    4    5 1
     9    4   29 1
    10    4   30 1
    11    5    6 1
    12    5    7 1
    13    5   22 1
    14    7    8 1
    15    7   31 1
    16    7   32 1
    17    8   21 ar
    18    8    9 ar
    19    9   10 ar
    20    9   33 1
    21   10   11 ar
    22   11   12 ar
    23   11   34 1
    24   12   13 1
    25   12   21 ar
    26   13   14 1
    27   14   15 1
    28   14   35 1
    29   14   36 1
    30   15   20 ar
    31   15   16 ar
    32   16   17 ar
    33   16   37 1
    34   17   18 ar
    35   17   38 1
    36   18   19 ar
    37   18   39 1
    38   19   20 ar
    39   19   40 1
    40   20   41 1
    41   21   42 1
    42   22   23 1
    43   22   43 1
    44   22   44 1
    45   23   24 1
    46   23   25 1
    47   25   45 1
##########                 Name:     ZINC000292439461
##########          Protonation:                 none
##########               SMILES:   COc1ccccc1CNC(=O)C[NH2+][C@@H](C)[C@@H]1OCCc2sccc21
##########            Long Name:   NO_LONG_NAME
##########          FlexRecCode: 1
##########               Number:                18691
##########   Ligand Source File: /nfs/db/export/3D/FF/ADRO/FFADRO.xbjd.db2.gz
##########                 Rank:                    1
##########               Setnum:                  336
##########             Matchnum:                    1
##########                Cloud:                    1
##########        Electrostatic:           -43.948555
##########                 Gist:             0.000000
##########        Van der Waals:           -32.061260
##########  Ligand Polar Desolv:            16.407143
########## Ligand Apolar Desolv:            -3.245932
##########      Internal Energy:             0.000000
##########      Receptor Energy:             0.000000
########## Receptor Desolvation:             0.000000
########## Receptor Hydrophobic:             0.000000
##########         Total Energy:           -62.848602
##########        Ligand Charge:             1.000000
##########            Arbitrary:    +999.9990
##########        Ligand Energy:             0.000000

@<TRIPOS>MOLECULE
 ZINC000292439461      none
   50    52     0     0     0



@<TRIPOS>ATOM
      1 C1        -13.0083    14.6416   -12.1757 C.3        1  LIG1   0.0200
      2 O1        -13.7950    15.0934   -13.2798 O.3        1  LIG1  -0.3200
      3 C2        -14.4176    14.1419   -14.0241 C.ar       1  LIG1   0.1500
      4 C3        -14.2790    12.8016   -13.6950 C.ar       1  LIG1  -0.2100
      5 C4        -14.9133    11.8362   -14.4530 C.ar       1  LIG1  -0.0600
      6 C5        -15.6854    12.2050   -15.5388 C.ar       1  LIG1  -0.1600
      7 C6        -15.8248    13.5407   -15.8692 C.ar       1  LIG1  -0.0600
      8 C7        -15.1976    14.5100   -15.1110 C.ar       1  LIG1  -0.1600
      9 C8        -15.3503    15.9653   -15.4713 C.3        1  LIG1   0.1700
     10 N1        -16.7586    16.2529   -15.7547 N.am       1  LIG1  -0.6900
     11 C9        -17.0850    17.2203   -16.6345 C.2        1  LIG1   0.5000
     12 O2        -16.2128    17.8526   -17.1916 O.2        1  LIG1  -0.5300
     13 C10       -18.5336    17.5161   -16.9263 C.3        1  LIG1  -0.0300
     14 N2        -18.9869    16.6837   -18.0484 N.4        1  LIG1  -0.4900
     15 H1        -18.8847    15.7093   -17.8073 H          1  LIG1   0.4400
     16 H2        -19.9568    16.8816   -18.2437 H          1  LIG1   0.4300
     17 C11       -18.1772    16.9814   -19.2374 C.3        1  LIG1   0.0400
     18 H3        -17.1361    17.1147   -18.9440 H          1  LIG1   0.1500
     19 C12       -18.2832    15.8220   -20.2300 C.3        1  LIG1  -0.1800
     20 C13       -18.6900    18.2642   -19.8952 C.3        1  LIG1   0.1400
     21 H4        -18.6162    19.0929   -19.1910 H          1  LIG1   0.1000
     22 O3        -20.0524    18.0902   -20.2936 O.3        1  LIG1  -0.3800
     23 C14       -20.5747    19.1615   -21.0846 C.3        1  LIG1   0.0700
     24 C15       -19.9321    19.1163   -22.4772 C.3        1  LIG1  -0.0900
     25 C16       -18.4379    18.9533   -22.2951 C.2        1  LIG1  -0.1600
     26 C17       -17.8624    18.5707   -21.1364 C.2        1  LIG1  -0.1600
     27 C18       -16.4772    18.4891   -21.2018 C.2        1  LIG1  -0.1300
     28 C19       -15.9375    18.7957   -22.3789 C.2        1  LIG1  -0.2100
     29 S1        -17.2074    19.2235   -23.5172 S.3        1  LIG1   0.1700
     30 H5        -12.5681    15.4998   -11.6679 H          1  LIG1   0.0600
     31 H6        -13.6417    14.0927   -11.4787 H          1  LIG1   0.0600
     32 H7        -12.2151    13.9877   -12.5381 H          1  LIG1   0.1000
     33 H8        -13.6754    12.5128   -12.8472 H          1  LIG1   0.1300
     34 H9        -14.8058    10.7924   -14.1972 H          1  LIG1   0.1300
     35 H10       -16.1801    11.4490   -16.1303 H          1  LIG1   0.1300
     36 H11       -16.4281    13.8263   -16.7182 H          1  LIG1   0.1300
     37 H12       -15.0137    16.5830   -14.6386 H          1  LIG1   0.0900
     38 H13       -14.7497    16.1861   -16.3535 H          1  LIG1   0.0900
     39 H14       -17.4562    15.7472   -15.3090 H          1  LIG1   0.4100
     40 H15       -19.1344    17.2952   -16.0440 H          1  LIG1   0.1600
     41 H16       -18.6440    18.5687   -17.1868 H          1  LIG1   0.1600
     42 H17       -17.6824    16.0429   -21.1123 H          1  LIG1   0.1100
     43 H18       -17.9180    14.9081   -19.7614 H          1  LIG1   0.0800
     44 H19       -19.3244    15.6887   -20.5235 H          1  LIG1   0.0900
     45 H20       -21.6552    19.0525   -21.1780 H          1  LIG1   0.1200
     46 H21       -20.3431    20.1137   -20.6070 H          1  LIG1   0.0700
     47 H22       -20.3295    18.2713   -23.0394 H          1  LIG1   0.1000
     48 H23       -20.1396    20.0447   -23.0094 H          1  LIG1   0.1000
     49 H24       -15.8773    18.1966   -20.3527 H          1  LIG1   0.1400
     50 H25       -14.8806    18.7846   -22.6009 H          1  LIG1   0.1700
@<TRIPOS>BOND
     1    1    2 1
     2    1   30 1
     3    1   31 1
     4    1   32 1
     5    2    3 1
     6    3    8 ar
     7    3    4 ar
     8    4    5 ar
     9    4   33 1
    10    5    6 ar
    11    5   34 1
    12    6    7 ar
    13    6   35 1
    14    7    8 ar
    15    7   36 1
    16    8    9 1
    17    9   10 1
    18    9   37 1
    19    9   38 1
    20   10   11 am
    21   10   39 1
    22   11   12 2
    23   11   13 1
    24   13   14 1
    25   13   40 1
    26   13   41 1
    27   14   15 1
    28   14   16 1
    29   14   17 1
    30   17   18 1
    31   17   19 1
    32   17   20 1
    33   19   42 1
    34   19   43 1
    35   19   44 1
    36   20   21 1
    37   20   26 1
    38   20   22 1
    39   22   23 1
    40   23   24 1
    41   23   45 1
    42   23   46 1
    43   24   25 1
    44   24   47 1
    45   24   48 1
    46   25   29 1
    47   25   26 2
    48   26   27 1
    49   27   28 2
    50   27   49 1
    51   28   29 1
    52   28   50 1
##########                 Name:     ZINC000438496892
##########          Protonation:                 none
##########               SMILES:   C[C@]1(C2=CC=CC=C2)CC[N@@H+](CC(=O)NC2=CC=CC=C2[N+](=O)[O-])C1
##########            Long Name:   NO_LONG_NAME
##########          FlexRecCode: 1
##########               Number:                12719
##########   Ligand Source File: /nfs/db/export/3D/EG/BDMO/EGBDMO.xaw.db2.gz
##########                 Rank:                    1
##########               Setnum:                   88
##########             Matchnum:                    1
##########                Cloud:                    1
##########        Electrostatic:           -40.965927
##########                 Gist:             0.000000
##########        Van der Waals:           -32.733051
##########  Ligand Polar Desolv:            15.265743
########## Ligand Apolar Desolv:            -5.783319
##########      Internal Energy:             0.000000
##########      Receptor Energy:             0.000000
########## Receptor Desolvation:             0.000000
########## Receptor Hydrophobic:             0.000000
##########         Total Energy:           -64.216553
##########        Ligand Charge:             1.000000
##########            Arbitrary:    +999.9990
##########        Ligand Energy:             0.000000

@<TRIPOS>MOLECULE
 ZINC000438496892      none
   47    49     0     0     0



@<TRIPOS>ATOM
      1 C1        -16.4083    15.8547   -15.2984 C.3        1  LIG1  -0.1600
      2 C2        -16.5475    17.0066   -16.2957 C.3        1  LIG1  -0.0300
      3 C3        -15.4567    18.0229   -16.0758 C.ar       1  LIG1  -0.1000
      4 C4        -14.5199    17.8264   -15.0783 C.ar       1  LIG1  -0.1100
      5 C5        -13.5193    18.7586   -14.8766 C.ar       1  LIG1  -0.1100
      6 C6        -13.4552    19.8870   -15.6726 C.ar       1  LIG1  -0.1000
      7 C7        -14.3914    20.0829   -16.6706 C.ar       1  LIG1  -0.1100
      8 C8        -15.3896    19.1486   -16.8750 C.ar       1  LIG1  -0.1200
      9 C9        -17.9344    17.6682   -16.1601 C.3        1  LIG1  -0.1400
     10 C10       -18.6062    17.4773   -17.5368 C.3        1  LIG1  -0.0100
     11 N1        -17.9227    16.2974   -18.1266 N.4        1  LIG1  -0.3800
     12 H1        -18.2917    15.4437   -17.7354 H          1  LIG1   0.4300
     13 C11       -18.0674    16.2975   -19.5885 C.3        1  LIG1  -0.0200
     14 C12       -17.9211    17.7046   -20.1076 C.2        1  LIG1   0.5100
     15 O1        -16.8928    18.3183   -19.9149 O.2        1  LIG1  -0.5100
     16 N2        -18.9329    18.2813   -20.7861 N.am       1  LIG1  -0.6500
     17 C13       -18.7971    19.5877   -21.2682 C.ar       1  LIG1   0.1900
     18 C14       -17.5461    20.0692   -21.6305 C.ar       1  LIG1  -0.1100
     19 C15       -17.4153    21.3595   -22.1060 C.ar       1  LIG1  -0.0500
     20 C16       -18.5285    22.1715   -22.2210 C.ar       1  LIG1  -0.1100
     21 C17       -19.7758    21.6951   -21.8606 C.ar       1  LIG1  -0.0400
     22 C18       -19.9141    20.4040   -21.3907 C.ar       1  LIG1  -0.0600
     23 N3        -21.2496    19.8948   -21.0056 N.pl3      1  LIG1   0.0300
     24 O2        -21.3692    18.7595   -20.5811 O.2        1  LIG1  -0.1300
     25 O3        -22.2288    20.6110   -21.1133 O.2        1  LIG1  -0.1900
     26 C19       -16.4981    16.4716   -17.7430 C.3        1  LIG1   0.0000
     27 H2        -16.4450    16.2474   -14.2823 H          1  LIG1   0.0800
     28 H3        -17.2246    15.1472   -15.4442 H          1  LIG1   0.0800
     29 H4        -15.4562    15.3487   -15.4583 H          1  LIG1   0.0700
     30 H5        -14.5700    16.9448   -14.4566 H          1  LIG1   0.1300
     31 H6        -12.7879    18.6055   -14.0969 H          1  LIG1   0.1300
     32 H7        -12.6739    20.6156   -15.5144 H          1  LIG1   0.1300
     33 H8        -14.3417    20.9647   -17.2922 H          1  LIG1   0.1300
     34 H9        -16.1210    19.3017   -17.6548 H          1  LIG1   0.1200
     35 H10       -18.5160    17.1722   -15.3829 H          1  LIG1   0.1100
     36 H11       -17.8273    18.7292   -15.9349 H          1  LIG1   0.1200
     37 H12       -19.6712    17.2784   -17.4158 H          1  LIG1   0.1500
     38 H13       -18.4515    18.3575   -18.1607 H          1  LIG1   0.1300
     39 H14       -17.2969    15.6654   -20.0299 H          1  LIG1   0.1700
     40 H15       -19.0512    15.9119   -19.8562 H          1  LIG1   0.1700
     41 H16       -19.7552    17.7905   -20.9402 H          1  LIG1   0.4300
     42 H17       -16.6761    19.4355   -21.5403 H          1  LIG1   0.1600
     43 H18       -16.4426    21.7345   -22.3880 H          1  LIG1   0.1500
     44 H19       -18.4236    23.1800   -22.5927 H          1  LIG1   0.1600
     45 H20       -20.6433    22.3321   -21.9512 H          1  LIG1   0.1700
     46 H21       -16.0133    17.1945   -18.3991 H          1  LIG1   0.1400
     47 H22       -15.9755    15.5156   -17.7773 H          1  LIG1   0.1400
@<TRIPOS>BOND
     1    1    2 1
     2    1   27 1
     3    1   28 1
     4    1   29 1
     5    2   26 1
     6    2    3 1
     7    2    9 1
     8    3    8 ar
     9    3    4 ar
    10    4    5 ar
    11    4   30 1
    12    5    6 ar
    13    5   31 1
    14    6    7 ar
    15    6   32 1
    16    7    8 ar
    17    7   33 1
    18    8   34 1
    19    9   10 1
    20    9   35 1
    21    9   36 1
    22   10   11 1
    23   10   37 1
    24   10   38 1
    25   11   12 1
    26   11   13 1
    27   11   26 1
    28   13   14 1
    29   13   39 1
    30   13   40 1
    31   14   15 2
    32   14   16 am
    33   16   17 1
    34   16   41 1
    35   17   22 ar
    36   17   18 ar
    37   18   19 ar
    38   18   42 1
    39   19   20 ar
    40   19   43 1
    41   20   21 ar
    42   20   44 1
    43   21   22 ar
    44   21   45 1
    45   22   23 1
    46   23   24 2
    47   23   25 2
    48   26   46 1
    49   26   47 1
##########                 Name:     ZINC000406018563
##########          Protonation:                 none
##########               SMILES:   C[C@@]1(NCC2=C3C=CC=CN3N=C2)CC[N@@H+](CC2=CC=CC=C2)C1
##########            Long Name:   NO_LONG_NAME
##########          FlexRecCode: 1
##########               Number:                 5962
##########   Ligand Source File: /nfs/db/export/3D/DG/ADMO/DGADMO.xanz.db2.gz
##########                 Rank:                    1
##########               Setnum:                  114
##########             Matchnum:                    1
##########                Cloud:                    1
##########        Electrostatic:           -35.207127
##########                 Gist:             0.000000
##########        Van der Waals:           -37.608574
##########  Ligand Polar Desolv:            14.607653
########## Ligand Apolar Desolv:            -5.744568
##########      Internal Energy:             0.000000
##########      Receptor Energy:             0.000000
########## Receptor Desolvation:             0.000000
########## Receptor Hydrophobic:             0.000000
##########         Total Energy:           -63.952621
##########        Ligand Charge:             1.000000
##########            Arbitrary:    +999.9990
##########        Ligand Energy:             0.000000

@<TRIPOS>MOLECULE
 ZINC000406018563      none
   49    52     0     0     0



@<TRIPOS>ATOM
      1 C1        -15.8375    18.5632   -17.0397 C.3        1  LIG1  -0.1500
      2 C2        -16.8053    17.4372   -16.6702 C.3        1  LIG1   0.1000
      3 N1        -16.2319    16.6017   -15.6066 N.3        1  LIG1  -0.6700
      4 C3        -14.9645    15.9971   -16.0378 C.3        1  LIG1   0.1500
      5 C4        -14.1730    15.5727   -14.8276 C.2        1  LIG1  -0.2800
      6 C5        -14.2287    14.3325   -14.2039 C.2        1  LIG1   0.1300
      7 C6        -14.9684    13.1621   -14.4597 C.2        1  LIG1  -0.1200
      8 C7        -14.8015    12.0807   -13.6510 C.2        1  LIG1  -0.0700
      9 C8        -13.8972    12.1498   -12.5782 C.2        1  LIG1  -0.1600
     10 C9        -13.1961    13.2792   -12.3470 C.2        1  LIG1   0.1100
     11 N2        -13.3527    14.3725   -13.1496 N.pl3      1  LIG1  -0.2700
     12 N3        -12.7673    15.6447   -13.1384 N.2        1  LIG1  -0.3200
     13 C10       -13.2532    16.3464   -14.1385 C.2        1  LIG1   0.0900
     14 C11       -18.1638    18.0229   -16.2217 C.3        1  LIG1  -0.1800
     15 C12       -19.0198    17.9390   -17.5106 C.3        1  LIG1   0.0000
     16 N4        -18.5875    16.6566   -18.1227 N.4        1  LIG1  -0.3900
     17 H1        -19.0467    15.8817   -17.6680 H          1  LIG1   0.4200
     18 C13       -18.8914    16.6537   -19.5600 C.3        1  LIG1   0.0500
     19 C14       -20.3757    16.8205   -19.7599 C.ar       1  LIG1  -0.1600
     20 C15       -20.8541    17.4436   -20.8973 C.ar       1  LIG1  -0.0900
     21 C16       -22.2157    17.5967   -21.0808 C.ar       1  LIG1  -0.1100
     22 C17       -23.0988    17.1263   -20.1269 C.ar       1  LIG1  -0.0800
     23 C18       -22.6203    16.5025   -18.9900 C.ar       1  LIG1  -0.1100
     24 C19       -21.2590    16.3456   -18.8085 C.ar       1  LIG1  -0.0900
     25 C20       -17.1261    16.5802   -17.9089 C.3        1  LIG1   0.0000
     26 H2        -15.6200    19.1605   -16.1542 H          1  LIG1   0.0700
     27 H3        -14.9124    18.1351   -17.4255 H          1  LIG1   0.0800
     28 H4        -16.2907    19.1961   -17.8026 H          1  LIG1   0.0800
     29 H5        -16.1091    17.1319   -14.7570 H          1  LIG1   0.3500
     30 H6        -15.1704    15.1266   -16.6607 H          1  LIG1   0.0900
     31 H7        -14.3904    16.7258   -16.6101 H          1  LIG1   0.0500
     32 H8        -15.6604    13.1233   -15.2879 H          1  LIG1   0.1500
     33 H9        -15.3610    11.1750   -13.8325 H          1  LIG1   0.1400
     34 H10       -13.7626    11.2933   -11.9341 H          1  LIG1   0.1600
     35 H11       -12.5041    13.3187   -11.5187 H          1  LIG1   0.1700
     36 H12       -12.9851    17.3646   -14.3788 H          1  LIG1   0.1900
     37 H13       -18.6016    17.4177   -15.4279 H          1  LIG1   0.1000
     38 H14       -18.0503    19.0584   -15.9008 H          1  LIG1   0.1200
     39 H15       -20.0816    17.9100   -17.2659 H          1  LIG1   0.1300
     40 H16       -18.7995    18.7755   -18.1738 H          1  LIG1   0.1300
     41 H17       -18.3647    17.4759   -20.0443 H          1  LIG1   0.1300
     42 H18       -18.5698    15.7085   -19.9973 H          1  LIG1   0.1400
     43 H19       -20.1641    17.8110   -21.6426 H          1  LIG1   0.1300
     44 H20       -22.5895    18.0841   -21.9692 H          1  LIG1   0.1400
     45 H21       -24.1625    17.2466   -20.2699 H          1  LIG1   0.1400
     46 H22       -23.3104    16.1353   -18.2447 H          1  LIG1   0.1400
     47 H23       -20.8852    15.8581   -17.9203 H          1  LIG1   0.1300
     48 H24       -16.6021    16.9750   -18.7793 H          1  LIG1   0.1400
     49 H25       -16.8303    15.5461   -17.7315 H          1  LIG1   0.1400
@<TRIPOS>BOND
     1    1    2 1
     2    1   26 1
     3    1   27 1
     4    1   28 1
     5    2   25 1
     6    2    3 1
     7    2   14 1
     8    3    4 1
     9    3   29 1
    10    4    5 1
    11    4   30 1
    12    4   31 1
    13    5   13 1
    14    5    6 2
    15    6   11 1
    16    6    7 1
    17    7    8 2
    18    7   32 1
    19    8    9 1
    20    8   33 1
    21    9   10 2
    22    9   34 1
    23   10   11 1
    24   10   35 1
    25   11   12 1
    26   12   13 2
    27   13   36 1
    28   14   15 1
    29   14   37 1
    30   14   38 1
    31   15   16 1
    32   15   39 1
    33   15   40 1
    34   16   17 1
    35   16   18 1
    36   16   25 1
    37   18   19 1
    38   18   41 1
    39   18   42 1
    40   19   24 ar
    41   19   20 ar
    42   20   21 ar
    43   20   43 1
    44   21   22 ar
    45   21   44 1
    46   22   23 ar
    47   22   45 1
    48   23   24 ar
    49   23   46 1
    50   24   47 1
    51   25   48 1
    52   25   49 1
##########                 Name:     ZINC000372749894
##########          Protonation:                 none
##########               SMILES:   CC1=CC=CC(OCCNC(=O)C[N@@H+]2C[C@@H]3CCC[C@H]3[C@@H]2C(N)=O)=C1
##########            Long Name:   NO_LONG_NAME
##########          FlexRecCode: 1
##########               Number:                12766
##########   Ligand Source File: /nfs/db/export/3D/ED/ADMO/EDADMO.xayw.db2.gz
##########                 Rank:                    1
##########               Setnum:                   54
##########             Matchnum:                    1
##########                Cloud:                    1
##########        Electrostatic:           -42.290348
##########                 Gist:             0.000000
##########        Van der Waals:           -33.512360
##########  Ligand Polar Desolv:            12.982094
########## Ligand Apolar Desolv:            -2.572369
##########      Internal Energy:             0.000000
##########      Receptor Energy:             0.000000
########## Receptor Desolvation:             0.000000
########## Receptor Hydrophobic:             0.000000
##########         Total Energy:           -65.392975
##########        Ligand Charge:             1.000000
##########            Arbitrary:    +999.9990
##########        Ligand Energy:             0.000000

@<TRIPOS>MOLECULE
 ZINC000372749894      none
   53    55     0     0     0



@<TRIPOS>ATOM
      1 C1        -12.3592    13.4675   -11.7741 C.3        1  LIG1  -0.1200
      2 C2        -13.3801    13.1592   -12.8388 C.ar       1  LIG1  -0.0400
      3 C3        -13.9729    11.9112   -12.8864 C.ar       1  LIG1  -0.1500
      4 C4        -14.9102    11.6252   -13.8621 C.ar       1  LIG1  -0.0700
      5 C5        -15.2562    12.5861   -14.7919 C.ar       1  LIG1  -0.2100
      6 C6        -14.6626    13.8394   -14.7464 C.ar       1  LIG1   0.1200
      7 O1        -15.0017    14.7869   -15.6598 O.3        1  LIG1  -0.3200
      8 C7        -14.9227    16.1505   -15.2398 C.3        1  LIG1   0.0400
      9 C8        -15.3390    17.0645   -16.3941 C.3        1  LIG1   0.1200
     10 N1        -16.7149    16.7545   -16.7905 N.am       1  LIG1  -0.7000
     11 C9        -17.6669    17.7060   -16.7208 C.2        1  LIG1   0.5000
     12 O2        -17.3845    18.8188   -16.3299 O.2        1  LIG1  -0.5300
     13 C10       -19.0822    17.3872   -17.1286 C.3        1  LIG1  -0.0400
     14 N2        -19.1033    16.9663   -18.5358 N.4        1  LIG1  -0.3700
     15 H1        -18.5287    16.1457   -18.6567 H          1  LIG1   0.4400
     16 C11       -18.5931    18.0767   -19.4061 C.3        1  LIG1   0.0200
     17 C12       -19.4351    17.9252   -20.6568 C.3        1  LIG1  -0.1200
     18 H2        -19.1407    17.0422   -21.2239 H          1  LIG1   0.1100
     19 C13       -19.7699    19.0802   -21.5795 C.3        1  LIG1  -0.1000
     20 C14       -21.1347    18.6198   -22.1869 C.3        1  LIG1  -0.1200
     21 C15       -21.7600    17.6493   -21.1379 C.3        1  LIG1  -0.1000
     22 C16       -20.8373    17.7279   -19.9601 C.3        1  LIG1  -0.1300
     23 H3        -21.0487    18.6479   -19.4152 H          1  LIG1   0.1100
     24 C17       -20.5090    16.6674   -18.9547 C.3        1  LIG1   0.0300
     25 H4        -20.5742    15.6791   -19.4099 H          1  LIG1   0.1600
     26 C18       -21.4360    16.7613   -17.7703 C.2        1  LIG1   0.5100
     27 N3        -21.7183    15.6600   -17.0465 N.am       1  LIG1  -0.8200
     28 O3        -21.9279    17.8280   -17.4683 O.2        1  LIG1  -0.5100
     29 C19       -13.7270    14.1258   -13.7631 C.ar       1  LIG1  -0.1500
     30 H5        -12.2167    12.5907   -11.1425 H          1  LIG1   0.0800
     31 H6        -11.4128    13.7342   -12.2445 H          1  LIG1   0.0700
     32 H7        -12.7097    14.3008   -11.1650 H          1  LIG1   0.0700
     33 H8        -13.7035    11.1583   -12.1605 H          1  LIG1   0.1300
     34 H9        -15.3716    10.6493   -13.8975 H          1  LIG1   0.1300
     35 H10       -15.9880    12.3621   -15.5540 H          1  LIG1   0.1300
     36 H11       -15.5895    16.3089   -14.3922 H          1  LIG1   0.0700
     37 H12       -13.8990    16.3811   -14.9448 H          1  LIG1   0.0900
     38 H13       -15.2788    18.1046   -16.0736 H          1  LIG1   0.1000
     39 H14       -14.6723    16.9062   -17.2416 H          1  LIG1   0.0900
     40 H15       -16.9407    15.8646   -17.1032 H          1  LIG1   0.4100
     41 H16       -19.4679    16.5823   -16.5027 H          1  LIG1   0.1500
     42 H17       -19.7044    18.2736   -17.0050 H          1  LIG1   0.1800
     43 H18       -18.7655    19.0459   -18.9383 H          1  LIG1   0.1300
     44 H19       -17.5358    17.9371   -19.6319 H          1  LIG1   0.1500
     45 H20       -19.8859    20.0071   -21.0176 H          1  LIG1   0.0800
     46 H21       -19.0140    19.1896   -22.3572 H          1  LIG1   0.0900
     47 H22       -21.7872    19.4793   -22.3401 H          1  LIG1   0.0800
     48 H23       -20.9700    18.0989   -23.1301 H          1  LIG1   0.0800
     49 H24       -22.7640    17.9752   -20.8665 H          1  LIG1   0.0900
     50 H25       -21.7793    16.6301   -21.5240 H          1  LIG1   0.0800
     51 H26       -21.3248    14.8069   -17.2879 H          1  LIG1   0.4100
     52 H27       -22.3150    15.7205   -16.2840 H          1  LIG1   0.4200
     53 H28       -13.2636    15.1006   -13.7255 H          1  LIG1   0.1300
@<TRIPOS>BOND
     1    1    2 1
     2    1   30 1
     3    1   31 1
     4    1   32 1
     5    2   29 ar
     6    2    3 ar
     7    3    4 ar
     8    3   33 1
     9    4    5 ar
    10    4   34 1
    11    5    6 ar
    12    5   35 1
    13    6    7 1
    14    6   29 ar
    15    7    8 1
    16    8    9 1
    17    8   36 1
    18    8   37 1
    19    9   10 1
    20    9   38 1
    21    9   39 1
    22   10   11 am
    23   10   40 1
    24   11   12 2
    25   11   13 1
    26   13   14 1
    27   13   41 1
    28   13   42 1
    29   14   15 1
    30   14   24 1
    31   14   16 1
    32   16   17 1
    33   16   43 1
    34   16   44 1
    35   17   18 1
    36   17   22 1
    37   17   19 1
    38   19   20 1
    39   19   45 1
    40   19   46 1
    41   20   21 1
    42   20   47 1
    43   20   48 1
    44   21   22 1
    45   21   49 1
    46   21   50 1
    47   22   23 1
    48   22   24 1
    49   24   25 1
    50   24   26 1
    51   26   27 am
    52   26   28 2
    53   27   51 1
    54   27   52 1
    55   29   53 1
##########                 Name:     ZINC000459794009
##########          Protonation:                 none
##########               SMILES:   C[C@@H]([NH2+][C@@H]1CCC[C@@H]2C[C@@H]21)C(=O)NC1=C2C=CC=CC2=CC=C1
##########            Long Name:   NO_LONG_NAME
##########          FlexRecCode: 1
##########               Number:                13093
##########   Ligand Source File: /nfs/db/export/3D/DH/ADRO/DHADRO.xbe.db2.gz
##########                 Rank:                    1
##########               Setnum:                   38
##########             Matchnum:                    1
##########                Cloud:                    1
##########        Electrostatic:           -41.033424
##########                 Gist:             0.000000
##########        Van der Waals:           -33.672321
##########  Ligand Polar Desolv:            13.591647
########## Ligand Apolar Desolv:            -6.299092
##########      Internal Energy:             0.000000
##########      Receptor Energy:             0.000000
########## Receptor Desolvation:             0.000000
########## Receptor Hydrophobic:             0.000000
##########         Total Energy:           -67.413193
##########        Ligand Charge:             1.000000
##########            Arbitrary:    +999.9990
##########        Ligand Energy:             0.000000

@<TRIPOS>MOLECULE
 ZINC000459794009      none
   48    51     0     0     0



@<TRIPOS>ATOM
      1 C1        -17.5652    15.8796   -19.8064 C.3        1  LIG1  -0.1800
      2 C2        -18.0982    16.9537   -18.8561 C.3        1  LIG1   0.0000
      3 H1        -18.2031    17.8957   -19.3947 H          1  LIG1   0.1700
      4 N1        -19.4075    16.5399   -18.3341 N.4        1  LIG1  -0.4900
      5 H2        -19.3923    15.5511   -18.1336 H          1  LIG1   0.4300
      6 H3        -19.6094    17.0515   -17.4883 H          1  LIG1   0.4300
      7 C3        -20.4449    16.8205   -19.3356 C.3        1  LIG1   0.0600
      8 H4        -20.0635    16.5757   -20.3269 H          1  LIG1   0.1500
      9 C4        -20.8050    18.3054   -19.2864 C.3        1  LIG1  -0.1500
     10 C5        -21.9710    18.5577   -20.2492 C.3        1  LIG1  -0.1100
     11 C6        -23.2506    18.0071   -19.6196 C.3        1  LIG1  -0.1000
     12 C7        -23.0624    16.5391   -19.2433 C.3        1  LIG1  -0.1100
     13 H5        -23.8190    15.8566   -19.6307 H          1  LIG1   0.1200
     14 C8        -22.5321    16.2687   -17.8269 C.3        1  LIG1  -0.1800
     15 C9        -21.6686    15.9662   -19.0436 C.3        1  LIG1  -0.2000
     16 H6        -21.5469    14.9116   -19.2909 H          1  LIG1   0.1300
     17 C10       -17.1352    17.1343   -17.7112 C.2        1  LIG1   0.5000
     18 O1        -17.0337    18.2144   -17.1686 O.2        1  LIG1  -0.5100
     19 N2        -16.3868    16.0956   -17.2898 N.am       1  LIG1  -0.6400
     20 C11       -15.4947    16.2629   -16.2291 C.ar       1  LIG1   0.1200
     21 C12       -15.1863    15.1785   -15.3805 C.ar       1  LIG1  -0.0500
     22 C13       -15.7620    13.9134   -15.5769 C.ar       1  LIG1  -0.1300
     23 C14       -15.4413    12.8896   -14.7387 C.ar       1  LIG1  -0.1000
     24 C15       -14.5483    13.0781   -13.6857 C.ar       1  LIG1  -0.1100
     25 C16       -13.9710    14.2907   -13.4652 C.ar       1  LIG1  -0.0900
     26 C17       -14.2779    15.3712   -14.3105 C.ar       1  LIG1  -0.0400
     27 C18       -13.7004    16.6369   -14.1131 C.ar       1  LIG1  -0.0900
     28 C19       -14.0156    17.6656   -14.9477 C.ar       1  LIG1  -0.1100
     29 C20       -14.9028    17.4872   -16.0048 C.ar       1  LIG1  -0.1000
     30 H7        -17.4604    14.9377   -19.2679 H          1  LIG1   0.1000
     31 H8        -18.2618    15.7491   -20.6345 H          1  LIG1   0.1100
     32 H9        -16.5938    16.1868   -20.1936 H          1  LIG1   0.0900
     33 H10       -21.1020    18.5766   -18.2732 H          1  LIG1   0.0900
     34 H11       -19.9442    18.9011   -19.5901 H          1  LIG1   0.0900
     35 H12       -22.0790    19.6287   -20.4205 H          1  LIG1   0.0900
     36 H13       -21.7808    18.0503   -21.1950 H          1  LIG1   0.0800
     37 H14       -23.4891    18.5818   -18.7246 H          1  LIG1   0.0800
     38 H15       -24.0708    18.0952   -20.3321 H          1  LIG1   0.0900
     39 H16       -22.2598    17.1304   -17.2176 H          1  LIG1   0.1000
     40 H17       -22.9531    15.4221   -17.2842 H          1  LIG1   0.1100
     41 H18       -16.4680    15.2318   -17.7237 H          1  LIG1   0.4200
     42 H19       -16.4562    13.7532   -16.3886 H          1  LIG1   0.1200
     43 H20       -15.8856    11.9172   -14.8920 H          1  LIG1   0.1300
     44 H21       -14.3111    12.2498   -13.0346 H          1  LIG1   0.1300
     45 H22       -13.2810    14.4223   -12.6449 H          1  LIG1   0.1400
     46 H23       -13.0074    16.7937   -13.2998 H          1  LIG1   0.1400
     47 H24       -13.5670    18.6351   -14.7886 H          1  LIG1   0.1300
     48 H25       -15.1360    18.3195   -16.6523 H          1  LIG1   0.1400
@<TRIPOS>BOND
     1    1    2 1
     2    1   30 1
     3    1   31 1
     4    1   32 1
     5    2    3 1
     6    2    4 1
     7    2   17 1
     8    4    5 1
     9    4    6 1
    10    4    7 1
    11    7    8 1
    12    7   15 1
    13    7    9 1
    14    9   10 1
    15    9   33 1
    16    9   34 1
    17   10   11 1
    18   10   35 1
    19   10   36 1
    20   11   12 1
    21   11   37 1
    22   11   38 1
    23   12   13 1
    24   12   15 1
    25   12   14 1
    26   14   15 1
    27   14   39 1
    28   14   40 1
    29   15   16 1
    30   17   18 2
    31   17   19 am
    32   19   20 1
    33   19   41 1
    34   20   29 ar
    35   20   21 ar
    36   21   26 ar
    37   21   22 ar
    38   22   23 ar
    39   22   42 1
    40   23   24 ar
    41   23   43 1
    42   24   25 ar
    43   24   44 1
    44   25   26 ar
    45   25   45 1
    46   26   27 ar
    47   27   28 ar
    48   27   46 1
    49   28   29 ar
    50   28   47 1
    51   29   48 1
##########                 Name:     ZINC000613373033
##########          Protonation:                 none
##########               SMILES:   CC1=CC=C(C[NH2+]C[C@@H](O)COC2=C(C)C=CC=C2C)C(C)=C1
##########            Long Name:   NO_LONG_NAME
##########          FlexRecCode: 1
##########               Number:                 6602
##########   Ligand Source File: /nfs/db/export/3D/DG/ADRO/DGADRO.xbty.db2.gz
##########                 Rank:                    1
##########               Setnum:                  195
##########             Matchnum:                    1
##########                Cloud:                    1
##########        Electrostatic:           -49.461464
##########                 Gist:             0.000000
##########        Van der Waals:           -27.979534
##########  Ligand Polar Desolv:            19.285366
########## Ligand Apolar Desolv:            -4.695822
##########      Internal Energy:             0.000000
##########      Receptor Energy:             0.000000
########## Receptor Desolvation:             0.000000
########## Receptor Hydrophobic:             0.000000
##########         Total Energy:           -62.851448
##########        Ligand Charge:             1.000000
##########            Arbitrary:    +999.9990
##########        Ligand Energy:             0.000000

@<TRIPOS>MOLECULE
 ZINC000613373033      none
   51    52     0     0     0



@<TRIPOS>ATOM
      1 C1        -15.1245    10.9455   -12.8276 C.3        1  LIG1  -0.1300
      2 C2        -15.2875    12.1379   -13.7347 C.ar       1  LIG1  -0.0400
      3 C3        -16.1108    12.0565   -14.8418 C.ar       1  LIG1  -0.1200
      4 C4        -16.2603    13.1505   -15.6740 C.ar       1  LIG1  -0.0800
      5 C5        -15.5866    14.3254   -15.3986 C.ar       1  LIG1  -0.1800
      6 C6        -15.7491    15.5176   -16.3060 C.3        1  LIG1   0.0500
      7 N1        -16.6678    15.1779   -17.4008 N.4        1  LIG1  -0.5100
      8 H1        -16.2919    14.4034   -17.9272 H          1  LIG1   0.4300
      9 H2        -17.5656    14.9210   -17.0191 H          1  LIG1   0.4300
     10 C7        -16.8261    16.3400   -18.2855 C.3        1  LIG1  -0.0400
     11 C8        -17.7829    15.9862   -19.4258 C.3        1  LIG1   0.0900
     12 H3        -17.5834    14.9697   -19.7653 H          1  LIG1   0.1300
     13 O1        -19.1314    16.0775   -18.9620 O.3        1  LIG1  -0.5400
     14 C9        -17.5756    16.9614   -20.5865 C.3        1  LIG1   0.0300
     15 O2        -17.8369    18.2938   -20.1415 O.3        1  LIG1  -0.3100
     16 C10       -17.6974    19.2885   -21.0570 C.ar       1  LIG1   0.0800
     17 C11       -16.4710    19.9162   -21.2197 C.ar       1  LIG1  -0.0900
     18 C12       -15.2915    19.4956   -20.3813 C.3        1  LIG1  -0.1200
     19 C13       -16.3317    20.9266   -22.1513 C.ar       1  LIG1  -0.1100
     20 C14       -17.4135    21.3130   -22.9209 C.ar       1  LIG1  -0.1100
     21 C15       -18.6371    20.6894   -22.7603 C.ar       1  LIG1  -0.1100
     22 C16       -18.7800    19.6741   -21.8343 C.ar       1  LIG1  -0.1000
     23 C17       -20.1137    18.9948   -21.6598 C.3        1  LIG1  -0.1100
     24 C18       -14.7641    14.4072   -14.2904 C.ar       1  LIG1  -0.0600
     25 C19       -14.0299    15.6885   -13.9899 C.3        1  LIG1  -0.1300
     26 C20       -14.6176    13.3149   -13.4563 C.ar       1  LIG1  -0.1200
     27 H4        -15.7243    10.1172   -13.2049 H          1  LIG1   0.0800
     28 H5        -14.0755    10.6510   -12.7994 H          1  LIG1   0.0800
     29 H6        -15.4560    11.2057   -11.8223 H          1  LIG1   0.0800
     30 H7        -16.6373    11.1384   -15.0569 H          1  LIG1   0.1400
     31 H8        -16.9031    13.0866   -16.5395 H          1  LIG1   0.1300
     32 H9        -16.1551    16.3542   -15.7375 H          1  LIG1   0.1400
     33 H10       -14.7791    15.7951   -16.7185 H          1  LIG1   0.1400
     34 H11       -17.2322    17.1765   -17.7169 H          1  LIG1   0.1400
     35 H12       -15.8562    16.6176   -18.6979 H          1  LIG1   0.1500
     36 H13       -19.3347    15.4854   -18.2250 H          1  LIG1   0.3900
     37 H14       -16.5469    16.8916   -20.9402 H          1  LIG1   0.0700
     38 H15       -18.2571    16.7094   -21.3989 H          1  LIG1   0.0700
     39 H16       -14.4227    20.0970   -20.6489 H          1  LIG1   0.0700
     40 H17       -15.5244    19.6429   -19.3267 H          1  LIG1   0.0700
     41 H18       -15.0743    18.4429   -20.5619 H          1  LIG1   0.0700
     42 H19       -15.3772    21.4156   -22.2785 H          1  LIG1   0.1300
     43 H20       -17.3028    22.1034   -23.6484 H          1  LIG1   0.1300
     44 H21       -19.4807    20.9931   -23.3624 H          1  LIG1   0.1300
     45 H22       -20.8357    19.4286   -22.3516 H          1  LIG1   0.0700
     46 H23       -20.0086    17.9295   -21.8651 H          1  LIG1   0.0700
     47 H24       -20.4616    19.1349   -20.6363 H          1  LIG1   0.0700
     48 H25       -13.4360    15.5631   -13.0845 H          1  LIG1   0.0900
     49 H26       -13.3730    15.9351   -14.8240 H          1  LIG1   0.0900
     50 H27       -14.7495    16.4940   -13.8437 H          1  LIG1   0.0500
     51 H28       -13.9751    13.3787   -12.5906 H          1  LIG1   0.1400
@<TRIPOS>BOND
     1    1    2 1
     2    1   27 1
     3    1   28 1
     4    1   29 1
     5    2   26 ar
     6    2    3 ar
     7    3    4 ar
     8    3   30 1
     9    4    5 ar
    10    4   31 1
    11    5    6 1
    12    5   24 ar
    13    6    7 1
    14    6   32 1
    15    6   33 1
    16    7    8 1
    17    7    9 1
    18    7   10 1
    19   10   11 1
    20   10   34 1
    21   10   35 1
    22   11   12 1
    23   11   13 1
    24   11   14 1
    25   13   36 1
    26   14   15 1
    27   14   37 1
    28   14   38 1
    29   15   16 1
    30   16   22 ar
    31   16   17 ar
    32   17   18 1
    33   17   19 ar
    34   18   39 1
    35   18   40 1
    36   18   41 1
    37   19   20 ar
    38   19   42 1
    39   20   21 ar
    40   20   43 1
    41   21   22 ar
    42   21   44 1
    43   22   23 1
    44   23   45 1
    45   23   46 1
    46   23   47 1
    47   24   25 1
    48   24   26 ar
    49   25   48 1
    50   25   49 1
    51   25   50 1
    52   26   51 1
##########                 Name:     ZINC000562056679
##########          Protonation:                 none
##########               SMILES:   C[C@H](CC(=O)Nc1ccc(NC(=O)C2CC2)cc1)[NH2+][C@H]1CC[C@@H](F)C1
##########            Long Name:   NO_LONG_NAME
##########          FlexRecCode: 1
##########               Number:                 1386
##########   Ligand Source File: /nfs/db/export/3D/EG/ADRO/EGADRO.xckz.db2.gz
##########                 Rank:                    1
##########               Setnum:                  211
##########             Matchnum:                    1
##########                Cloud:                    1
##########        Electrostatic:           -42.957958
##########                 Gist:             0.000000
##########        Van der Waals:           -31.813465
##########  Ligand Polar Desolv:            16.085960
########## Ligand Apolar Desolv:            -3.970290
##########      Internal Energy:             0.000000
##########      Receptor Energy:             0.000000
########## Receptor Desolvation:             0.000000
########## Receptor Hydrophobic:             0.000000
##########         Total Energy:           -62.655754
##########        Ligand Charge:             1.000000
##########            Arbitrary:    +999.9990
##########        Ligand Energy:             0.000000

@<TRIPOS>MOLECULE
 ZINC000562056679      none
   52    54     0     0     0



@<TRIPOS>ATOM
      1 C1        -16.9601    16.3012   -20.1421 C.3        1  LIG1  -0.1900
      2 C2        -17.9557    16.7910   -19.0887 C.3        1  LIG1   0.0500
      3 H1        -18.1960    17.8378   -19.2748 H          1  LIG1   0.1500
      4 C3        -17.3365    16.6495   -17.6967 C.3        1  LIG1  -0.1700
      5 C4        -16.4008    17.8033   -17.4436 C.2        1  LIG1   0.5000
      6 O1        -16.6117    18.8800   -17.9608 O.2        1  LIG1  -0.5400
      7 N1        -15.3294    17.6389   -16.6425 N.am       1  LIG1  -0.6500
      8 C5        -14.4597    18.7114   -16.4071 C.ar       1  LIG1   0.1000
      9 C6        -13.7720    18.7964   -15.2037 C.ar       1  LIG1  -0.1100
     10 C7        -12.9149    19.8534   -14.9717 C.ar       1  LIG1  -0.1300
     11 C8        -12.7403    20.8316   -15.9423 C.ar       1  LIG1   0.1500
     12 N2        -11.8706    21.9041   -15.7065 N.am       1  LIG1  -0.6700
     13 C9        -10.7969    21.7382   -14.9090 C.2        1  LIG1   0.5500
     14 O2        -10.5835    20.6601   -14.3957 O.2        1  LIG1  -0.5200
     15 C10        -9.8616    22.8929   -14.6557 C.3        1  LIG1  -0.2000
     16 C11       -10.4659    24.1823   -14.0960 C.3        1  LIG1  -0.1500
     17 C12        -9.6061    23.2887   -13.2000 C.3        1  LIG1  -0.1400
     18 C13       -13.4268    20.7456   -17.1461 C.ar       1  LIG1  -0.1100
     19 C14       -14.2810    19.6866   -17.3795 C.ar       1  LIG1  -0.0900
     20 N3        -19.1826    15.9864   -19.1628 N.4        1  LIG1  -0.5000
     21 H2        -19.4097    15.8078   -20.1296 H          1  LIG1   0.4200
     22 H3        -19.0396    15.1101   -18.6835 H          1  LIG1   0.4300
     23 C15       -20.2869    16.7175   -18.5273 C.3        1  LIG1   0.0200
     24 H4        -19.9404    17.2211   -17.6249 H          1  LIG1   0.1500
     25 C16       -20.9008    17.7392   -19.5165 C.3        1  LIG1  -0.1500
     26 C17       -22.3298    17.9427   -18.9545 C.3        1  LIG1  -0.1500
     27 C18       -22.7504    16.5388   -18.4728 C.3        1  LIG1   0.0900
     28 H5        -23.3365    16.6183   -17.5573 H          1  LIG1   0.1100
     29 F1        -23.4974    15.8955   -19.4654 F          1  LIG1  -0.2000
     30 C19       -21.4500    15.7592   -18.1979 C.3        1  LIG1  -0.1700
     31 H6        -16.7200    15.2544   -19.9560 H          1  LIG1   0.0800
     32 H7        -17.4013    16.4020   -21.1336 H          1  LIG1   0.1000
     33 H8        -16.0497    16.8981   -20.0870 H          1  LIG1   0.1100
     34 H9        -18.1265    16.6508   -16.9457 H          1  LIG1   0.1200
     35 H10       -16.7821    15.7128   -17.6393 H          1  LIG1   0.1500
     36 H11       -15.1607    16.7779   -16.2289 H          1  LIG1   0.4200
     37 H12       -13.9081    18.0359   -14.4491 H          1  LIG1   0.1300
     38 H13       -12.3806    19.9200   -14.0355 H          1  LIG1   0.1400
     39 H14       -12.0413    22.7662   -16.1172 H          1  LIG1   0.4200
     40 H15        -9.0319    22.9882   -15.3562 H          1  LIG1   0.1300
     41 H16       -10.0341    25.1261   -14.4285 H          1  LIG1   0.1100
     42 H17       -11.5401    24.1957   -13.9113 H          1  LIG1   0.1000
     43 H18       -10.1145    22.7142   -12.4256 H          1  LIG1   0.1100
     44 H19        -8.6085    23.6447   -12.9429 H          1  LIG1   0.1100
     45 H20       -13.2905    21.5060   -17.9007 H          1  LIG1   0.1400
     46 H21       -14.8150    19.6199   -18.3158 H          1  LIG1   0.1300
     47 H22       -20.3427    18.6752   -19.5009 H          1  LIG1   0.1100
     48 H23       -20.9374    17.3266   -20.5247 H          1  LIG1   0.0900
     49 H24       -22.3153    18.6439   -18.1201 H          1  LIG1   0.1000
     50 H25       -23.0013    18.2942   -19.7379 H          1  LIG1   0.1000
     51 H26       -21.3996    14.8792   -18.8392 H          1  LIG1   0.1000
     52 H27       -21.4078    15.4612   -17.1503 H          1  LIG1   0.1100
@<TRIPOS>BOND
     1    1    2 1
     2    1   31 1
     3    1   32 1
     4    1   33 1
     5    2    3 1
     6    2    4 1
     7    2   20 1
     8    4    5 1
     9    4   34 1
    10    4   35 1
    11    5    6 2
    12    5    7 am
    13    7    8 1
    14    7   36 1
    15    8   19 ar
    16    8    9 ar
    17    9   10 ar
    18    9   37 1
    19   10   11 ar
    20   10   38 1
    21   11   12 1
    22   11   18 ar
    23   12   13 am
    24   12   39 1
    25   13   14 2
    26   13   15 1
    27   15   17 1
    28   15   16 1
    29   15   40 1
    30   16   17 1
    31   16   41 1
    32   16   42 1
    33   17   43 1
    34   17   44 1
    35   18   19 ar
    36   18   45 1
    37   19   46 1
    38   20   21 1
    39   20   22 1
    40   20   23 1
    41   23   24 1
    42   23   30 1
    43   23   25 1
    44   25   26 1
    45   25   47 1
    46   25   48 1
    47   26   27 1
    48   26   49 1
    49   26   50 1
    50   27   28 1
    51   27   29 1
    52   27   30 1
    53   30   51 1
    54   30   52 1
##########                 Name:     ZINC000116350383
##########          Protonation:                 none
##########               SMILES:   CC1=CC=CC(C[NH2+][C@H](CO)CC2=CNC3=CC=CC=C23)=C1
##########            Long Name:   NO_LONG_NAME
##########          FlexRecCode: 1
##########               Number:                 6989
##########   Ligand Source File: /nfs/db/export/3D/CG/ADRO/CGADRO.xbkh.db2.gz
##########                 Rank:                    1
##########               Setnum:                   39
##########             Matchnum:                    1
##########                Cloud:                    1
##########        Electrostatic:           -40.669964
##########                 Gist:             0.000000
##########        Van der Waals:           -28.559753
##########  Ligand Polar Desolv:            11.228559
########## Ligand Apolar Desolv:            -5.295765
##########      Internal Energy:             0.000000
##########      Receptor Energy:             0.000000
########## Receptor Desolvation:             0.000000
########## Receptor Hydrophobic:             0.000000
##########         Total Energy:           -63.296928
##########        Ligand Charge:             1.000000
##########            Arbitrary:    +999.9990
##########        Ligand Energy:             0.000000

@<TRIPOS>MOLECULE
 ZINC000116350383      none
   45    47     0     0     0



@<TRIPOS>ATOM
      1 C1        -21.7730    18.1010   -21.1716 C.3        1  LIG1  -0.1300
      2 C2        -21.5535    17.4218   -19.8444 C.ar       1  LIG1  -0.0800
      3 C3        -22.4800    16.5112   -19.3726 C.ar       1  LIG1  -0.0900
      4 C4        -22.2787    15.8880   -18.1548 C.ar       1  LIG1  -0.1100
      5 C5        -21.1507    16.1755   -17.4095 C.ar       1  LIG1  -0.1000
      6 C6        -20.2235    17.0857   -17.8820 C.ar       1  LIG1  -0.1600
      7 C7        -18.9939    17.3995   -17.0692 C.3        1  LIG1   0.0400
      8 N1        -17.9126    16.4771   -17.4409 N.4        1  LIG1  -0.5100
      9 H1        -18.2029    15.5280   -17.2591 H          1  LIG1   0.4300
     10 H2        -17.7032    16.5826   -18.4223 H          1  LIG1   0.4300
     11 C8        -16.7141    16.7831   -16.6487 C.3        1  LIG1   0.0300
     12 H3        -16.9404    16.6692   -15.5886 H          1  LIG1   0.1500
     13 C9        -16.2739    18.2221   -16.9247 C.3        1  LIG1   0.0500
     14 O1        -16.4247    18.5078   -18.3167 O.3        1  LIG1  -0.5800
     15 C10       -15.5879    15.8222   -17.0358 C.3        1  LIG1  -0.0500
     16 C11       -15.7921    14.5020   -16.3381 C.2        1  LIG1  -0.2300
     17 C12       -16.4817    13.4498   -16.8064 C.2        1  LIG1   0.1000
     18 N2        -16.4492    12.4284   -15.8965 N.pl3      1  LIG1  -0.5900
     19 C13       -15.7193    12.8081   -14.7924 C.ar       1  LIG1   0.1000
     20 C14       -15.3797    12.1711   -13.6035 C.ar       1  LIG1  -0.1100
     21 C15       -14.6160    12.8326   -12.6666 C.ar       1  LIG1  -0.0900
     22 C16       -14.1808    14.1303   -12.8965 C.ar       1  LIG1  -0.1200
     23 C17       -14.5029    14.7750   -14.0576 C.ar       1  LIG1  -0.1100
     24 C18       -15.2703    14.1214   -15.0234 C.ar       1  LIG1  -0.1200
     25 C19       -20.4226    17.7054   -19.1013 C.ar       1  LIG1  -0.1000
     26 H4        -22.7102    17.7540   -21.6068 H          1  LIG1   0.0800
     27 H5        -21.8185    19.1801   -21.0245 H          1  LIG1   0.0800
     28 H6        -20.9492    17.8603   -21.8436 H          1  LIG1   0.0700
     29 H7        -23.3613    16.2865   -19.9549 H          1  LIG1   0.1300
     30 H8        -23.0031    15.1770   -17.7858 H          1  LIG1   0.1400
     31 H9        -20.9937    15.6893   -16.4581 H          1  LIG1   0.1300
     32 H10       -18.6804    18.4248   -17.2657 H          1  LIG1   0.1400
     33 H11       -19.2203    17.2857   -16.0091 H          1  LIG1   0.1400
     34 H12       -16.8905    18.9084   -16.3442 H          1  LIG1   0.0700
     35 H13       -15.2287    18.3433   -16.6401 H          1  LIG1   0.1000
     36 H14       -17.3317    18.4199   -18.6403 H          1  LIG1   0.4100
     37 H15       -15.5967    15.6681   -18.1148 H          1  LIG1   0.1000
     38 H16       -14.6294    16.2467   -16.7371 H          1  LIG1   0.1200
     39 H17       -16.9876    13.4148   -17.7599 H          1  LIG1   0.1800
     40 H18       -16.8768    11.5654   -16.0119 H          1  LIG1   0.4300
     41 H19       -15.7138    11.1616   -13.4151 H          1  LIG1   0.1300
     42 H20       -14.3537    12.3364   -11.7439 H          1  LIG1   0.1300
     43 H21       -13.5833    14.6348   -12.1516 H          1  LIG1   0.1300
     44 H22       -14.1607    15.7849   -14.2297 H          1  LIG1   0.1100
     45 H23       -19.6983    18.4165   -19.4704 H          1  LIG1   0.1300
@<TRIPOS>BOND
     1    1    2 1
     2    1   26 1
     3    1   27 1
     4    1   28 1
     5    2   25 ar
     6    2    3 ar
     7    3    4 ar
     8    3   29 1
     9    4    5 ar
    10    4   30 1
    11    5    6 ar
    12    5   31 1
    13    6    7 1
    14    6   25 ar
    15    7    8 1
    16    7   32 1
    17    7   33 1
    18    8    9 1
    19    8   10 1
    20    8   11 1
    21   11   12 1
    22   11   13 1
    23   11   15 1
    24   13   14 1
    25   13   34 1
    26   13   35 1
    27   14   36 1
    28   15   16 1
    29   15   37 1
    30   15   38 1
    31   16   24 1
    32   16   17 2
    33   17   18 1
    34   17   39 1
    35   18   19 1
    36   18   40 1
    37   19   24 ar
    38   19   20 ar
    39   20   21 ar
    40   20   41 1
    41   21   22 ar
    42   21   42 1
    43   22   23 ar
    44   22   43 1
    45   23   24 ar
    46   23   44 1
    47   25   45 1
##########                 Name:     ZINC000546181306
##########          Protonation:                 none
##########               SMILES:   COc1cccc([C@H](C)[NH2+][C@@H](Cc2ccc(Cl)cc2)C(N)=O)c1
##########            Long Name:   NO_LONG_NAME
##########          FlexRecCode: 1
##########               Number:                13780
##########   Ligand Source File: /nfs/db/export/3D/EG/ADRO/EGADRO.xclw.db2.gz
##########                 Rank:                    1
##########               Setnum:                   37
##########             Matchnum:                    1
##########                Cloud:                    1
##########        Electrostatic:           -45.525684
##########                 Gist:             0.000000
##########        Van der Waals:           -28.059658
##########  Ligand Polar Desolv:            13.726806
########## Ligand Apolar Desolv:            -3.041866
##########      Internal Energy:             0.000000
##########      Receptor Energy:             0.000000
########## Receptor Desolvation:             0.000000
########## Receptor Hydrophobic:             0.000000
##########         Total Energy:           -62.900402
##########        Ligand Charge:             1.000000
##########            Arbitrary:    +999.9990
##########        Ligand Energy:             0.000000

@<TRIPOS>MOLECULE
 ZINC000546181306      none
   45    46     0     0     0



@<TRIPOS>ATOM
      1 C1        -15.6076    11.0136   -13.0782 C.3        1  LIG1   0.0200
      2 O1        -16.3817    11.9341   -13.8499 O.3        1  LIG1  -0.3100
      3 C2        -15.8905    13.1943   -13.9818 C.ar       1  LIG1   0.1500
      4 C3        -14.6855    13.5363   -13.3859 C.ar       1  LIG1  -0.1900
      5 C4        -14.1880    14.8181   -13.5220 C.ar       1  LIG1  -0.0600
      6 C5        -14.8903    15.7595   -14.2510 C.ar       1  LIG1  -0.1600
      7 C6        -16.0920    15.4213   -14.8457 C.ar       1  LIG1  -0.1000
      8 C7        -16.8553    16.4503   -15.6393 C.3        1  LIG1   0.0700
      9 H1        -16.3086    17.3932   -15.6324 H          1  LIG1   0.1500
     10 C8        -18.2357    16.6567   -15.0123 C.3        1  LIG1  -0.1800
     11 N1        -17.0110    15.9844   -17.0236 N.4        1  LIG1  -0.4900
     12 H2        -16.1566    15.5415   -17.3276 H          1  LIG1   0.4300
     13 H3        -17.7694    15.3207   -17.0719 H          1  LIG1   0.4400
     14 C9        -17.3060    17.1293   -17.8954 C.3        1  LIG1   0.0100
     15 H4        -16.6998    17.9829   -17.5918 H          1  LIG1   0.1600
     16 C10       -16.9816    16.7634   -19.3452 C.3        1  LIG1  -0.0900
     17 C11       -16.8058    18.0229   -20.1539 C.ar       1  LIG1  -0.1200
     18 C12       -17.8949    18.5993   -20.7804 C.ar       1  LIG1  -0.0900
     19 C13       -17.7343    19.7544   -21.5223 C.ar       1  LIG1  -0.1000
     20 C14       -16.4833    20.3337   -21.6378 C.ar       1  LIG1  -0.0200
     21 Cl1       -16.2807    21.7848   -22.5688 Cl         1  LIG1  -0.0400
     22 C15       -15.3936    19.7564   -21.0103 C.ar       1  LIG1  -0.1000
     23 C16       -15.5565    18.6044   -20.2642 C.ar       1  LIG1  -0.1300
     24 C17       -18.7661    17.4842   -17.7815 C.2        1  LIG1   0.5200
     25 N2        -19.7075    16.5762   -18.1067 N.am       1  LIG1  -0.8200
     26 O2        -19.0942    18.5867   -17.3973 O.2        1  LIG1  -0.5200
     27 C18       -16.5907    14.1395   -14.7178 C.ar       1  LIG1  -0.1300
     28 H5        -16.1113    10.0473   -13.0527 H          1  LIG1   0.1100
     29 H6        -14.6228    10.8982   -13.5309 H          1  LIG1   0.0600
     30 H7        -15.4982    11.3933   -12.0623 H          1  LIG1   0.0600
     31 H8        -14.1368    12.8012   -12.8156 H          1  LIG1   0.1400
     32 H9        -13.2499    15.0847   -13.0581 H          1  LIG1   0.1400
     33 H10       -14.5000    16.7611   -14.3558 H          1  LIG1   0.1200
     34 H11       -18.7877    17.4010   -15.5864 H          1  LIG1   0.0900
     35 H12       -18.7824    15.7138   -15.0191 H          1  LIG1   0.0800
     36 H13       -18.1202    17.0025   -13.9851 H          1  LIG1   0.1100
     37 H14       -16.0609    16.1807   -19.3756 H          1  LIG1   0.1100
     38 H15       -17.7983    16.1745   -19.7627 H          1  LIG1   0.1300
     39 H16       -18.8714    18.1468   -20.6906 H          1  LIG1   0.1400
     40 H17       -18.5851    20.2044   -22.0121 H          1  LIG1   0.1400
     41 H18       -14.4167    20.2079   -21.1004 H          1  LIG1   0.1400
     42 H19       -14.7062    18.1538   -19.7741 H          1  LIG1   0.1300
     43 H20       -19.4452    15.6943   -18.4141 H          1  LIG1   0.4100
     44 H21       -20.6475    16.8045   -18.0334 H          1  LIG1   0.4300
     45 H22       -17.5291    13.8757   -15.1828 H          1  LIG1   0.1400
@<TRIPOS>BOND
     1    1    2 1
     2    1   28 1
     3    1   29 1
     4    1   30 1
     5    2    3 1
     6    3   27 ar
     7    3    4 ar
     8    4    5 ar
     9    4   31 1
    10    5    6 ar
    11    5   32 1
    12    6    7 ar
    13    6   33 1
    14    7    8 1
    15    7   27 ar
    16    8    9 1
    17    8   10 1
    18    8   11 1
    19   10   34 1
    20   10   35 1
    21   10   36 1
    22   11   12 1
    23   11   13 1
    24   11   14 1
    25   14   15 1
    26   14   16 1
    27   14   24 1
    28   16   17 1
    29   16   37 1
    30   16   38 1
    31   17   23 ar
    32   17   18 ar
    33   18   19 ar
    34   18   39 1
    35   19   20 ar
    36   19   40 1
    37   20   21 1
    38   20   22 ar
    39   22   23 ar
    40   22   41 1
    41   23   42 1
    42   24   25 am
    43   24   26 2
    44   25   43 1
    45   25   44 1
    46   27   45 1
##########                 Name:     ZINC000658089093
##########          Protonation:                 none
##########               SMILES:   OC[C@H]([NH2+][C@H]1CCCC2=NN(C3=CC=CC=C3)C=C21)C1CCC1
##########            Long Name:   NO_LONG_NAME
##########          FlexRecCode: 1
##########               Number:                 7321
##########   Ligand Source File: /nfs/db/export/3D/DG/ADRO/DGADRO.xbdu.db2.gz
##########                 Rank:                    1
##########               Setnum:                   13
##########             Matchnum:                    1
##########                Cloud:                    1
##########        Electrostatic:           -39.705143
##########                 Gist:             0.000000
##########        Van der Waals:           -31.004036
##########  Ligand Polar Desolv:            13.177633
########## Ligand Apolar Desolv:            -4.953975
##########      Internal Energy:             0.000000
##########      Receptor Energy:             0.000000
########## Receptor Desolvation:             0.000000
########## Receptor Hydrophobic:             0.000000
##########         Total Energy:           -62.485523
##########        Ligand Charge:             1.000000
##########            Arbitrary:    +999.9990
##########        Ligand Energy:             0.000000

@<TRIPOS>MOLECULE
 ZINC000658089093      none
   49    52     0     0     0



@<TRIPOS>ATOM
      1 O1        -17.0973    17.3222   -20.7547 O.3        1  LIG1  -0.5800
      2 C1        -18.2647    16.5430   -20.4863 C.3        1  LIG1   0.0500
      3 C2        -18.9195    17.0338   -19.1935 C.3        1  LIG1   0.0400
      4 H1        -18.8770    18.1224   -19.1553 H          1  LIG1   0.1500
      5 N1        -18.2033    16.4750   -18.0392 N.4        1  LIG1  -0.5000
      6 H2        -18.6351    16.7986   -17.1866 H          1  LIG1   0.4300
      7 H3        -18.2428    15.4674   -18.0745 H          1  LIG1   0.4300
      8 C3        -16.8012    16.9117   -18.0743 C.3        1  LIG1   0.1200
      9 H4        -16.3307    16.5641   -18.9940 H          1  LIG1   0.1400
     10 C4        -16.7341    18.4426   -18.0054 C.3        1  LIG1  -0.1400
     11 C5        -15.2847    18.8870   -17.7970 C.3        1  LIG1  -0.1100
     12 C6        -14.8401    18.5520   -16.3680 C.3        1  LIG1  -0.0500
     13 C7        -15.1697    17.1036   -16.0989 C.2        1  LIG1   0.1100
     14 N2        -14.7130    16.3354   -15.1525 N.2        1  LIG1  -0.2600
     15 N3        -15.2973    15.0680   -15.2986 N.pl3      1  LIG1  -0.3000
     16 C8        -15.0669    13.9546   -14.4785 C.ar       1  LIG1   0.1300
     17 C9        -15.7104    12.7526   -14.7406 C.ar       1  LIG1  -0.1400
     18 C10       -15.4816    11.6574   -13.9308 C.ar       1  LIG1  -0.0900
     19 C11       -14.6129    11.7573   -12.8596 C.ar       1  LIG1  -0.1100
     20 C12       -13.9708    12.9533   -12.5958 C.ar       1  LIG1  -0.0900
     21 C13       -14.1906    14.0500   -13.4059 C.ar       1  LIG1  -0.1100
     22 C14       -16.1234    15.1100   -16.3715 C.2        1  LIG1   0.0800
     23 C15       -16.0639    16.3529   -16.8825 C.2        1  LIG1  -0.2900
     24 C16       -20.3799    16.5790   -19.1569 C.3        1  LIG1  -0.1300
     25 C17       -21.1486    17.0747   -17.9207 C.3        1  LIG1  -0.1500
     26 C18       -22.3436    17.3161   -18.8581 C.3        1  LIG1  -0.1400
     27 C19       -21.3204    17.4587   -19.9973 C.3        1  LIG1  -0.1200
     28 H5        -16.6301    17.0658   -21.5616 H          1  LIG1   0.4100
     29 H6        -18.9685    16.6467   -21.3121 H          1  LIG1   0.0700
     30 H7        -17.9850    15.4952   -20.3768 H          1  LIG1   0.0900
     31 H8        -17.1125    18.8644   -18.9365 H          1  LIG1   0.0900
     32 H9        -17.3445    18.7952   -17.1740 H          1  LIG1   0.0900
     33 H10       -14.6410    18.3688   -18.5078 H          1  LIG1   0.0800
     34 H11       -15.2087    19.9625   -17.9575 H          1  LIG1   0.1000
     35 H12       -13.7658    18.7089   -16.2708 H          1  LIG1   0.1000
     36 H13       -15.3708    19.1877   -15.6592 H          1  LIG1   0.1000
     37 H14       -16.3896    12.6742   -15.5767 H          1  LIG1   0.1300
     38 H15       -15.9819    10.7222   -14.1342 H          1  LIG1   0.1400
     39 H16       -14.4359    10.8996   -12.2276 H          1  LIG1   0.1400
     40 H17       -13.2934    13.0284   -11.7579 H          1  LIG1   0.1400
     41 H18       -13.6888    14.9838   -13.1993 H          1  LIG1   0.1400
     42 H19       -16.7210    14.2934   -16.7488 H          1  LIG1   0.1800
     43 H20       -20.4956    15.5116   -19.3457 H          1  LIG1   0.1200
     44 H21       -21.3270    16.2981   -17.1769 H          1  LIG1   0.0800
     45 H22       -20.7400    17.9887   -17.4899 H          1  LIG1   0.0900
     46 H23       -22.9971    16.4502   -18.9642 H          1  LIG1   0.0900
     47 H24       -22.8885    18.2352   -18.6430 H          1  LIG1   0.0800
     48 H25       -20.9586    18.4778   -20.1342 H          1  LIG1   0.0900
     49 H26       -21.6374    16.9921   -20.9299 H          1  LIG1   0.0800
@<TRIPOS>BOND
     1    1    2 1
     2    1   28 1
     3    2    3 1
     4    2   29 1
     5    2   30 1
     6    3    4 1
     7    3    5 1
     8    3   24 1
     9    5    6 1
    10    5    7 1
    11    5    8 1
    12    8    9 1
    13    8   23 1
    14    8   10 1
    15   10   11 1
    16   10   31 1
    17   10   32 1
    18   11   12 1
    19   11   33 1
    20   11   34 1
    21   12   13 1
    22   12   35 1
    23   12   36 1
    24   13   23 1
    25   13   14 2
    26   14   15 1
    27   15   16 1
    28   15   22 1
    29   16   21 ar
    30   16   17 ar
    31   17   18 ar
    32   17   37 1
    33   18   19 ar
    34   18   38 1
    35   19   20 ar
    36   19   39 1
    37   20   21 ar
    38   20   40 1
    39   21   41 1
    40   22   23 2
    41   22   42 1
    42   24   27 1
    43   24   25 1
    44   24   43 1
    45   25   26 1
    46   25   44 1
    47   25   45 1
    48   26   27 1
    49   26   46 1
    50   26   47 1
    51   27   48 1
    52   27   49 1
##########                 Name:     ZINC000357249503
##########          Protonation:                 none
##########               SMILES:   CC1=CC([C@H](C)NC2=CC(N3C=CC=N3)=NC(N)=[NH+]2)=CC=C1F
##########            Long Name:   NO_LONG_NAME
##########          FlexRecCode: 1
##########               Number:                11338
##########   Ligand Source File: /nfs/db/export/3D/DF/ADRO/DFADRO.xatk.db2.gz
##########                 Rank:                    1
##########               Setnum:                   48
##########             Matchnum:                    1
##########                Cloud:                    1
##########        Electrostatic:           -41.023903
##########                 Gist:             0.000000
##########        Van der Waals:           -30.541355
##########  Ligand Polar Desolv:            11.803766
########## Ligand Apolar Desolv:            -5.040283
##########      Internal Energy:             0.000000
##########      Receptor Energy:             0.000000
########## Receptor Desolvation:             0.000000
########## Receptor Hydrophobic:             0.000000
##########         Total Energy:           -64.801781
##########        Ligand Charge:             1.000000
##########            Arbitrary:    +999.9990
##########        Ligand Energy:             0.000000

@<TRIPOS>MOLECULE
 ZINC000357249503      none
   41    43     0     0     0



@<TRIPOS>ATOM
      1 C1        -15.7872    18.4935   -24.1262 C.3        1  LIG1  -0.1200
      2 C2        -16.9301    18.8074   -23.1954 C.ar       1  LIG1  -0.1000
      3 C3        -17.1984    17.9755   -22.1254 C.ar       1  LIG1  -0.0700
      4 C4        -18.2469    18.2632   -21.2712 C.ar       1  LIG1  -0.1200
      5 C5        -18.5385    17.3551   -20.1044 C.3        1  LIG1   0.1900
      6 H1        -17.8238    16.5322   -20.0970 H          1  LIG1   0.1200
      7 C6        -19.9574    16.7974   -20.2344 C.3        1  LIG1  -0.1700
      8 N1        -18.4242    18.1125   -18.8556 N.pl3      1  LIG1  -0.6800
      9 C7        -17.5023    17.7290   -17.8946 C.ar       1  LIG1   0.5200
     10 C8        -16.4984    18.6063   -17.4889 C.ar       1  LIG1  -0.3100
     11 C9        -15.5969    18.1783   -16.5223 C.ar       1  LIG1   0.5500
     12 N2        -14.5752    19.0234   -16.0851 N.pl3      1  LIG1  -0.3400
     13 C10       -13.6310    18.7236   -15.1547 C.2        1  LIG1   0.0700
     14 C11       -12.8319    19.8061   -15.0192 C.2        1  LIG1  -0.2300
     15 C12       -13.2974    20.7984   -15.8900 C.2        1  LIG1   0.1000
     16 N3        -14.3363    20.3297   -16.5316 N.2        1  LIG1  -0.2800
     17 N4        -15.7199    16.9538   -16.0187 N.ar       1  LIG1  -0.5800
     18 C13       -16.6863    16.1456   -16.4271 C.ar       1  LIG1   0.6900
     19 N5        -16.7819    14.8785   -15.8788 N.pl3      1  LIG1  -0.7900
     20 N6        -17.5669    16.5202   -17.3427 N.ar       1  LIG1  -0.5900
     21 H2        -18.2624    15.9034   -17.6195 H          1  LIG1   0.4400
     22 C14       -19.0276    19.3834   -21.4864 C.ar       1  LIG1  -0.0900
     23 C15       -18.7613    20.2167   -22.5565 C.ar       1  LIG1  -0.1400
     24 C16       -17.7083    19.9328   -23.4091 C.ar       1  LIG1   0.1100
     25 F1        -17.4471    20.7467   -24.4553 F          1  LIG1  -0.1300
     26 H3        -15.2948    17.5771   -23.8009 H          1  LIG1   0.0800
     27 H4        -16.1689    18.3611   -25.1385 H          1  LIG1   0.0800
     28 H5        -15.0711    19.3152   -24.1124 H          1  LIG1   0.0800
     29 H6        -16.5891    17.1000   -21.9562 H          1  LIG1   0.1400
     30 H7        -20.1682    16.1405   -19.3905 H          1  LIG1   0.0700
     31 H8        -20.6720    17.6204   -20.2419 H          1  LIG1   0.0700
     32 H9        -20.0424    16.2338   -21.1635 H          1  LIG1   0.0900
     33 H10       -18.9937    18.8825   -18.7014 H          1  LIG1   0.4200
     34 H11       -16.4228    19.5953   -17.9161 H          1  LIG1   0.1900
     35 H12       -13.5366    17.7901   -14.6198 H          1  LIG1   0.2000
     36 H13       -11.9838    19.8903   -14.3557 H          1  LIG1   0.1700
     37 H14       -12.8689    21.7820   -16.0143 H          1  LIG1   0.2100
     38 H15       -16.1459    14.5926   -15.2046 H          1  LIG1   0.4500
     39 H16       -17.4848    14.2763   -16.1687 H          1  LIG1   0.4300
     40 H17       -19.8462    19.6074   -20.8185 H          1  LIG1   0.1300
     41 H18       -19.3720    21.0916   -22.7249 H          1  LIG1   0.1400
@<TRIPOS>BOND
     1    1    2 1
     2    1   26 1
     3    1   27 1
     4    1   28 1
     5    2   24 ar
     6    2    3 ar
     7    3    4 ar
     8    3   29 1
     9    4    5 1
    10    4   22 ar
    11    5    6 1
    12    5    7 1
    13    5    8 1
    14    7   30 1
    15    7   31 1
    16    7   32 1
    17    8    9 1
    18    8   33 1
    19    9   20 ar
    20    9   10 ar
    21   10   11 ar
    22   10   34 1
    23   11   12 1
    24   11   17 ar
    25   12   16 1
    26   12   13 1
    27   13   14 2
    28   13   35 1
    29   14   15 1
    30   14   36 1
    31   15   16 2
    32   15   37 1
    33   17   18 ar
    34   18   19 1
    35   18   20 ar
    36   19   38 1
    37   19   39 1
    38   20   21 1
    39   22   23 ar
    40   22   40 1
    41   23   24 ar
    42   23   41 1
    43   24   25 1
##########                 Name:     ZINC000089938679
##########          Protonation:                 none
##########               SMILES:   CCOC(=O)C1=C(C[N@H+](C)[C@@H]2CCSC2)OC(C2=CC=CC=C2)=N1
##########            Long Name:   NO_LONG_NAME
##########          FlexRecCode: 1
##########               Number:                 3411
##########   Ligand Source File: /nfs/db/export/3D/EG/ADMO/EGADMO.xaok.db2.gz
##########                 Rank:                    1
##########               Setnum:                   28
##########             Matchnum:                    1
##########                Cloud:                    1
##########        Electrostatic:           -39.603458
##########                 Gist:             0.000000
##########        Van der Waals:           -32.152874
##########  Ligand Polar Desolv:            13.723256
########## Ligand Apolar Desolv:            -4.864143
##########      Internal Energy:             0.000000
##########      Receptor Energy:             0.000000
########## Receptor Desolvation:             0.000000
########## Receptor Hydrophobic:             0.000000
##########         Total Energy:           -62.897217
##########        Ligand Charge:             1.000000
##########            Arbitrary:    +999.9990
##########        Ligand Energy:             0.000000

@<TRIPOS>MOLECULE
 ZINC000089938679      none
   47    49     0     0     0



@<TRIPOS>ATOM
      1 C1        -13.3716    20.5269   -17.8178 C.3        1  LIG1  -0.1600
      2 C2        -13.7176    20.3648   -16.3361 C.3        1  LIG1   0.0600
      3 O1        -14.0777    18.9832   -16.0716 O.3        1  LIG1  -0.3200
      4 C3        -15.3781    18.6542   -16.2007 C.2        1  LIG1   0.5500
      5 O2        -16.1893    19.4989   -16.5256 O.2        1  LIG1  -0.5100
      6 C4        -15.8166    17.2706   -15.9482 C.2        1  LIG1   0.0200
      7 C5        -16.8660    16.6342   -16.5413 C.2        1  LIG1  -0.0600
      8 C6        -17.7944    17.2133   -17.5776 C.3        1  LIG1   0.0900
      9 N1        -17.9934    16.2370   -18.6571 N.4        1  LIG1  -0.3800
     10 H1        -18.0772    15.3120   -18.2628 H          1  LIG1   0.4300
     11 C7        -16.8444    16.2770   -19.5715 C.3        1  LIG1  -0.0600
     12 C8        -19.2191    16.5672   -19.3962 C.3        1  LIG1   0.0300
     13 H2        -19.3570    15.8373   -20.1939 H          1  LIG1   0.1500
     14 C9        -19.0637    17.9562   -20.0173 C.3        1  LIG1  -0.1600
     15 C10       -20.4635    18.6145   -20.1369 C.3        1  LIG1  -0.0700
     16 S1        -21.2135    18.1326   -18.5274 S.3        1  LIG1  -0.2200
     17 C11       -20.4164    16.4866   -18.4355 C.3        1  LIG1  -0.1200
     18 O3        -16.9169    15.3944   -16.0288 O.3        1  LIG1  -0.1700
     19 C12       -15.9187    15.2678   -15.1366 C.2        1  LIG1   0.3100
     20 C13       -15.6229    14.0536   -14.3461 C.ar       1  LIG1  -0.0600
     21 C14       -14.5581    14.0470   -13.4441 C.ar       1  LIG1  -0.0800
     22 C15       -14.2875    12.9111   -12.7092 C.ar       1  LIG1  -0.1200
     23 C16       -15.0689    11.7801   -12.8654 C.ar       1  LIG1  -0.0800
     24 C17       -16.1260    11.7802   -13.7580 C.ar       1  LIG1  -0.1200
     25 C18       -16.4106    12.9115   -14.4948 C.ar       1  LIG1  -0.0500
     26 N2        -15.2470    16.3900   -15.0853 N.2        1  LIG1  -0.4400
     27 H3        -13.1014    21.5640   -18.0164 H          1  LIG1   0.0900
     28 H4        -12.5320    19.8784   -18.0678 H          1  LIG1   0.0700
     29 H5        -14.2349    20.2538   -18.4245 H          1  LIG1   0.0700
     30 H6        -12.8544    20.6379   -15.7294 H          1  LIG1   0.0800
     31 H7        -14.5573    21.0134   -16.0862 H          1  LIG1   0.0800
     32 H8        -18.7542    17.4454   -17.1162 H          1  LIG1   0.1600
     33 H9        -17.3583    18.1243   -17.9875 H          1  LIG1   0.1800
     34 H10       -16.9919    15.5527   -20.3724 H          1  LIG1   0.1100
     35 H11       -16.7536    17.2763   -19.9974 H          1  LIG1   0.1300
     36 H12       -15.9348    16.0320   -19.0230 H          1  LIG1   0.1500
     37 H13       -18.4234    18.5704   -19.3843 H          1  LIG1   0.1000
     38 H14       -18.6163    17.8660   -21.0073 H          1  LIG1   0.1200
     39 H15       -20.3819    19.6981   -20.2236 H          1  LIG1   0.1300
     40 H16       -21.0243    18.1963   -20.9727 H          1  LIG1   0.1100
     41 H17       -21.1095    15.7112   -18.7622 H          1  LIG1   0.1300
     42 H18       -20.0749    16.2872   -17.4198 H          1  LIG1   0.1200
     43 H19       -13.9470    14.9290   -13.3218 H          1  LIG1   0.1300
     44 H20       -13.4638    12.9047   -12.0109 H          1  LIG1   0.1400
     45 H21       -14.8527    10.8932   -12.2883 H          1  LIG1   0.1400
     46 H22       -16.7321    10.8940   -13.8756 H          1  LIG1   0.1400
     47 H23       -17.2362    12.9103   -15.1909 H          1  LIG1   0.1400
@<TRIPOS>BOND
     1    1    2 1
     2    1   27 1
     3    1   28 1
     4    1   29 1
     5    2    3 1
     6    2   30 1
     7    2   31 1
     8    3    4 1
     9    4    5 2
    10    4    6 1
    11    6   26 1
    12    6    7 2
    13    7    8 1
    14    7   18 1
    15    8    9 1
    16    8   32 1
    17    8   33 1
    18    9   10 1
    19    9   11 1
    20    9   12 1
    21   11   34 1
    22   11   35 1
    23   11   36 1
    24   12   13 1
    25   12   17 1
    26   12   14 1
    27   14   15 1
    28   14   37 1
    29   14   38 1
    30   15   16 1
    31   15   39 1
    32   15   40 1
    33   16   17 1
    34   17   41 1
    35   17   42 1
    36   18   19 1
    37   19   20 1
    38   19   26 2
    39   20   25 ar
    40   20   21 ar
    41   21   22 ar
    42   21   43 1
    43   22   23 ar
    44   22   44 1
    45   23   24 ar
    46   23   45 1
    47   24   25 ar
    48   24   46 1
    49   25   47 1
##########                 Name:     ZINC000338442132
##########          Protonation:                 none
##########               SMILES:   C[C@H](Cc1cccc(Cl)c1)[NH2+]CCc1nnnn1-c1ccccc1
##########            Long Name:   NO_LONG_NAME
##########          FlexRecCode: 1
##########               Number:                 1454
##########   Ligand Source File: /nfs/db/export/3D/EG/ADRO/EGADRO.xcfr.db2.gz
##########                 Rank:                    1
##########               Setnum:                  152
##########             Matchnum:                    1
##########                Cloud:                    1
##########        Electrostatic:           -47.538258
##########                 Gist:             0.000000
##########        Van der Waals:           -31.745686
##########  Ligand Polar Desolv:            21.781635
########## Ligand Apolar Desolv:            -5.677065
##########      Internal Energy:             0.000000
##########      Receptor Energy:             0.000000
########## Receptor Desolvation:             0.000000
########## Receptor Hydrophobic:             0.000000
##########         Total Energy:           -63.179375
##########        Ligand Charge:             1.000000
##########            Arbitrary:    +999.9990
##########        Ligand Energy:             0.000000

@<TRIPOS>MOLECULE
 ZINC000338442132      none
   45    47     0     0     0



@<TRIPOS>ATOM
      1 C1        -21.0914    16.0924   -18.7684 C.3        1  LIG1  -0.1900
      2 C2        -19.8875    17.0248   -18.9176 C.3        1  LIG1   0.0300
      3 H1        -20.2060    18.0563   -18.7661 H          1  LIG1   0.1400
      4 C3        -19.2965    16.8742   -20.3207 C.3        1  LIG1  -0.1000
      5 C4        -18.1107    17.7927   -20.4675 C.ar       1  LIG1  -0.1100
      6 C5        -16.8452    17.3454   -20.1375 C.ar       1  LIG1  -0.1000
      7 C6        -15.7569    18.1874   -20.2722 C.ar       1  LIG1  -0.0900
      8 C7        -15.9338    19.4769   -20.7365 C.ar       1  LIG1  -0.1000
      9 C8        -17.2005    19.9252   -21.0670 C.ar       1  LIG1  -0.0300
     10 Cl1       -17.4234    21.5448   -21.6509 Cl         1  LIG1  -0.0500
     11 C9        -18.2882    19.0805   -20.9374 C.ar       1  LIG1  -0.1400
     12 N1        -18.8701    16.6746   -17.9174 N.4        1  LIG1  -0.5100
     13 H2        -18.8130    15.6708   -17.8332 H          1  LIG1   0.4300
     14 H3        -17.9749    17.0394   -18.2063 H          1  LIG1   0.4300
     15 C10       -19.2395    17.2546   -16.6193 C.3        1  LIG1  -0.0100
     16 C11       -18.1799    16.8899   -15.5778 C.3        1  LIG1  -0.0700
     17 C12       -16.8428    17.4348   -16.0093 C.2        1  LIG1   0.2300
     18 N2        -16.6079    18.6339   -16.4742 N.2        1  LIG1  -0.3100
     19 N3        -15.3615    18.7774   -16.7480 N.2        1  LIG1  -0.0200
     20 N4        -14.7189    17.6918   -16.4805 N.2        1  LIG1  -0.0500
     21 N5        -15.6633    16.7770   -15.9824 N.pl3      1  LIG1  -0.3200
     22 C13       -15.4320    15.4605   -15.5573 C.ar       1  LIG1   0.1000
     23 C14       -14.5685    15.2130   -14.4988 C.ar       1  LIG1  -0.1200
     24 C15       -14.3426    13.9155   -14.0826 C.ar       1  LIG1  -0.1000
     25 C16       -14.9756    12.8637   -14.7190 C.ar       1  LIG1  -0.0900
     26 C17       -15.8358    13.1071   -15.7738 C.ar       1  LIG1  -0.0900
     27 C18       -16.0704    14.4029   -16.1905 C.ar       1  LIG1  -0.0900
     28 H4        -20.7732    15.0611   -18.9199 H          1  LIG1   0.0800
     29 H5        -21.5125    16.1996   -17.7687 H          1  LIG1   0.1100
     30 H6        -21.8465    16.3523   -19.5104 H          1  LIG1   0.0900
     31 H7        -18.9782    15.8429   -20.4722 H          1  LIG1   0.1000
     32 H8        -20.0515    17.1343   -21.0628 H          1  LIG1   0.1300
     33 H9        -16.7066    16.3379   -19.7739 H          1  LIG1   0.1400
     34 H10       -14.7683    17.8373   -20.0142 H          1  LIG1   0.1400
     35 H11       -15.0837    20.1348   -20.8410 H          1  LIG1   0.1400
     36 H12       -19.2772    19.4300   -21.1952 H          1  LIG1   0.1300
     37 H13       -19.3013    18.3391   -16.7104 H          1  LIG1   0.1400
     38 H14       -20.2066    16.8605   -16.3072 H          1  LIG1   0.1500
     39 H15       -18.4538    17.3202   -14.6145 H          1  LIG1   0.1400
     40 H16       -18.1179    15.8054   -15.4867 H          1  LIG1   0.1200
     41 H17       -14.0736    16.0341   -14.0017 H          1  LIG1   0.1300
     42 H18       -13.6706    13.7223   -13.2594 H          1  LIG1   0.1400
     43 H19       -14.7974    11.8499   -14.3917 H          1  LIG1   0.1400
     44 H20       -16.3285    12.2835   -16.2692 H          1  LIG1   0.1400
     45 H21       -16.7427    14.5925   -17.0142 H          1  LIG1   0.1400
@<TRIPOS>BOND
     1    1    2 1
     2    1   28 1
     3    1   29 1
     4    1   30 1
     5    2    3 1
     6    2    4 1
     7    2   12 1
     8    4    5 1
     9    4   31 1
    10    4   32 1
    11    5   11 ar
    12    5    6 ar
    13    6    7 ar
    14    6   33 1
    15    7    8 ar
    16    7   34 1
    17    8    9 ar
    18    8   35 1
    19    9   10 1
    20    9   11 ar
    21   11   36 1
    22   12   13 1
    23   12   14 1
    24   12   15 1
    25   15   16 1
    26   15   37 1
    27   15   38 1
    28   16   17 1
    29   16   39 1
    30   16   40 1
    31   17   21 1
    32   17   18 2
    33   18   19 1
    34   19   20 2
    35   20   21 1
    36   21   22 1
    37   22   27 ar
    38   22   23 ar
    39   23   24 ar
    40   23   41 1
    41   24   25 ar
    42   24   42 1
    43   25   26 ar
    44   25   43 1
    45   26   27 ar
    46   26   44 1
    47   27   45 1
##########                 Name:     ZINC000366142599
##########          Protonation:                 none
##########               SMILES:   O[C@@H]1CCC[N@H+](CC2=CN=C(C3=CC=C(Cl)C=C3)N2)C1
##########            Long Name:   NO_LONG_NAME
##########          FlexRecCode: 1
##########               Number:                  924
##########   Ligand Source File: /nfs/db/export/3D/CF/ADMO/CFADMO.xaxc.db2.gz
##########                 Rank:                    1
##########               Setnum:                   51
##########             Matchnum:                    1
##########                Cloud:                    1
##########        Electrostatic:           -43.144432
##########                 Gist:             0.000000
##########        Van der Waals:           -30.486946
##########  Ligand Polar Desolv:            14.696102
########## Ligand Apolar Desolv:            -3.648536
##########      Internal Energy:             0.000000
##########      Receptor Energy:             0.000000
########## Receptor Desolvation:             0.000000
########## Receptor Hydrophobic:             0.000000
##########         Total Energy:           -62.583813
##########        Ligand Charge:             1.000000
##########            Arbitrary:    +999.9990
##########        Ligand Energy:             0.000000

@<TRIPOS>MOLECULE
 ZINC000366142599      none
   39    41     0     0     0



@<TRIPOS>ATOM
      1 O1        -21.4762    16.1657   -20.9648 O.3        1  LIG1  -0.5500
      2 C1        -20.9226    16.1194   -19.6482 C.3        1  LIG1   0.0900
      3 H1        -20.8296    15.0813   -19.3288 H          1  LIG1   0.0800
      4 C2        -21.8406    16.8719   -18.6806 C.3        1  LIG1  -0.1700
      5 C3        -21.2000    16.8835   -17.2897 C.3        1  LIG1  -0.1400
      6 C4        -19.8094    17.5156   -17.3797 C.3        1  LIG1  -0.0100
      7 N1        -18.9721    16.7357   -18.2990 N.4        1  LIG1  -0.3800
      8 H2        -18.9302    15.7781   -17.9838 H          1  LIG1   0.4200
      9 C5        -17.6165    17.3013   -18.3237 C.3        1  LIG1   0.0900
     10 C6        -16.8510    16.8239   -17.1166 C.2        1  LIG1  -0.1100
     11 C7        -16.0822    17.5779   -16.3050 C.2        1  LIG1   0.0500
     12 N2        -15.5752    16.7886   -15.3509 N.2        1  LIG1  -0.4700
     13 C8        -16.0002    15.5583   -15.5348 C.2        1  LIG1   0.3100
     14 C9        -15.6634    14.3908   -14.6917 C.ar       1  LIG1  -0.0400
     15 C10       -16.1792    13.1315   -15.0010 C.ar       1  LIG1  -0.0900
     16 C11       -15.8613    12.0461   -14.2113 C.ar       1  LIG1  -0.1100
     17 C12       -15.0325    12.2043   -13.1134 C.ar       1  LIG1  -0.0100
     18 Cl1       -14.6372    10.8339   -12.1238 Cl         1  LIG1  -0.0500
     19 C13       -14.5174    13.4514   -12.8018 C.ar       1  LIG1  -0.1100
     20 C14       -14.8241    14.5431   -13.5873 C.ar       1  LIG1  -0.0500
     21 N3        -16.8094    15.5439   -16.6330 N.pl3      1  LIG1  -0.5600
     22 C15       -19.5416    16.7787   -19.6512 C.3        1  LIG1  -0.0100
     23 H3        -20.9442    15.7102   -21.6315 H          1  LIG1   0.4100
     24 H4        -21.9755    17.8962   -19.0284 H          1  LIG1   0.0900
     25 H5        -22.8078    16.3716   -18.6324 H          1  LIG1   0.1000
     26 H6        -21.8207    17.4651   -16.6080 H          1  LIG1   0.1200
     27 H7        -21.1121    15.8616   -16.9209 H          1  LIG1   0.0900
     28 H8        -19.8985    18.5376   -17.7483 H          1  LIG1   0.1400
     29 H9        -19.3507    17.5257   -16.3911 H          1  LIG1   0.1400
     30 H10       -17.1044    16.9780   -19.2300 H          1  LIG1   0.1400
     31 H11       -17.6766    18.3895   -18.3089 H          1  LIG1   0.1600
     32 H12       -15.9056    18.6384   -16.4076 H          1  LIG1   0.1900
     33 H13       -16.8262    13.0071   -15.8567 H          1  LIG1   0.1300
     34 H14       -16.2598    11.0711   -14.4497 H          1  LIG1   0.1400
     35 H15       -13.8712    13.5688   -11.9445 H          1  LIG1   0.1500
     36 H16       -14.4216    15.5152   -13.3436 H          1  LIG1   0.1500
     37 H17       -17.2644    14.7717   -17.0042 H          1  LIG1   0.4300
     38 H18       -18.8852    16.2454   -20.3387 H          1  LIG1   0.1400
     39 H19       -19.6367    17.8161   -19.9720 H          1  LIG1   0.1400
@<TRIPOS>BOND
     1    1    2 1
     2    1   23 1
     3    2    3 1
     4    2   22 1
     5    2    4 1
     6    4    5 1
     7    4   24 1
     8    4   25 1
     9    5    6 1
    10    5   26 1
    11    5   27 1
    12    6    7 1
    13    6   28 1
    14    6   29 1
    15    7    8 1
    16    7    9 1
    17    7   22 1
    18    9   10 1
    19    9   30 1
    20    9   31 1
    21   10   21 1
    22   10   11 2
    23   11   12 1
    24   11   32 1
    25   12   13 2
    26   13   14 1
    27   13   21 1
    28   14   20 ar
    29   14   15 ar
    30   15   16 ar
    31   15   33 1
    32   16   17 ar
    33   16   34 1
    34   17   18 1
    35   17   19 ar
    36   19   20 ar
    37   19   35 1
    38   20   36 1
    39   21   37 1
    40   22   38 1
    41   22   39 1
##########                 Name:     ZINC000366142260
##########          Protonation:                 none
##########               SMILES:   C[C@H](O)C1CC[NH+](CC2=CN=C(C3=CC=C(Cl)C=C3)N2)CC1
##########            Long Name:   NO_LONG_NAME
##########          FlexRecCode: 1
##########               Number:                11993
##########   Ligand Source File: /nfs/db/export/3D/DG/ADRO/DGADRO.xbbo.db2.gz
##########                 Rank:                    1
##########               Setnum:                  237
##########             Matchnum:                    1
##########                Cloud:                    1
##########        Electrostatic:           -40.393497
##########                 Gist:             0.000000
##########        Van der Waals:           -35.095528
##########  Ligand Polar Desolv:            15.968187
########## Ligand Apolar Desolv:            -4.611845
##########      Internal Energy:             0.000000
##########      Receptor Energy:             0.000000
########## Receptor Desolvation:             0.000000
########## Receptor Hydrophobic:             0.000000
##########         Total Energy:           -64.132690
##########        Ligand Charge:             1.000000
##########            Arbitrary:    +999.9990
##########        Ligand Energy:             0.000000

@<TRIPOS>MOLECULE
 ZINC000366142260      none
   45    47     0     0     0



@<TRIPOS>ATOM
      1 C1        -22.7575    15.6025   -18.0517 C.3        1  LIG1  -0.1900
      2 C2        -22.6797    16.9893   -18.6934 C.3        1  LIG1   0.1100
      3 H1        -23.1359    17.7231   -18.0289 H          1  LIG1   0.1100
      4 O1        -23.3777    16.9769   -19.9402 O.3        1  LIG1  -0.5600
      5 C3        -21.2146    17.3592   -18.9326 C.3        1  LIG1  -0.1300
      6 C4        -20.4630    17.3632   -17.5984 C.3        1  LIG1  -0.1500
      7 C5        -18.9828    17.6556   -17.8538 C.3        1  LIG1   0.0000
      8 N1        -18.4203    16.6216   -18.7308 N.4        1  LIG1  -0.3800
      9 H2        -18.5574    15.7145   -18.3106 H          1  LIG1   0.4300
     10 C6        -16.9828    16.8638   -18.9115 C.3        1  LIG1   0.0800
     11 C7        -16.2317    16.3477   -17.7113 C.2        1  LIG1  -0.1100
     12 C8        -15.2480    16.9859   -17.0456 C.2        1  LIG1   0.0600
     13 N2        -14.8384    16.2005   -16.0428 N.2        1  LIG1  -0.4700
     14 C9        -15.5334    15.0849   -16.0543 C.2        1  LIG1   0.3100
     15 C10       -15.3811    13.9598   -15.1065 C.ar       1  LIG1  -0.0400
     16 C11       -16.1820    12.8241   -15.2327 C.ar       1  LIG1  -0.0900
     17 C12       -16.0350    11.7778   -14.3460 C.ar       1  LIG1  -0.1100
     18 C13       -15.0954    11.8530   -13.3317 C.ar       1  LIG1  -0.0100
     19 Cl1       -14.9165    10.5326   -12.2190 Cl         1  LIG1  -0.0500
     20 C14       -14.2975    12.9774   -13.2017 C.ar       1  LIG1  -0.1100
     21 C15       -14.4318    14.0277   -14.0858 C.ar       1  LIG1  -0.0500
     22 N3        -16.4232    15.1444   -17.0868 N.pl3      1  LIG1  -0.5600
     23 C16       -19.0880    16.6596   -20.0375 C.3        1  LIG1  -0.0100
     24 C17       -20.5722    16.3290   -19.8661 C.3        1  LIG1  -0.1400
     25 H3        -22.3013    14.8686   -18.7161 H          1  LIG1   0.0600
     26 H4        -22.2252    15.6119   -17.1006 H          1  LIG1   0.0700
     27 H5        -23.8013    15.3389   -17.8813 H          1  LIG1   0.0700
     28 H6        -23.0251    16.3454   -20.5821 H          1  LIG1   0.3700
     29 H7        -21.1578    18.3482   -19.3872 H          1  LIG1   0.1000
     30 H8        -20.8792    18.1330   -16.9485 H          1  LIG1   0.1200
     31 H9        -20.5643    16.3887   -17.1206 H          1  LIG1   0.0900
     32 H10       -18.8826    18.6302   -18.3313 H          1  LIG1   0.1300
     33 H11       -18.4448    17.6593   -16.9059 H          1  LIG1   0.1400
     34 H12       -16.6370    16.3467   -19.8066 H          1  LIG1   0.1300
     35 H13       -16.8053    17.9339   -19.0187 H          1  LIG1   0.1600
     36 H14       -14.8571    17.9647   -17.2818 H          1  LIG1   0.1900
     37 H15       -16.9156    12.7645   -16.0231 H          1  LIG1   0.1300
     38 H16       -16.6543    10.8982   -14.4429 H          1  LIG1   0.1400
     39 H17       -13.5660    13.0304   -12.4088 H          1  LIG1   0.1500
     40 H18       -13.8088    14.9039   -13.9837 H          1  LIG1   0.1500
     41 H19       -17.0655    14.4613   -17.3350 H          1  LIG1   0.4200
     42 H20       -18.9856    17.6557   -20.4685 H          1  LIG1   0.1200
     43 H21       -18.6276    15.9283   -20.7017 H          1  LIG1   0.1200
     44 H22       -20.6758    15.3331   -19.4354 H          1  LIG1   0.1000
     45 H23       -21.0665    16.3596   -20.8371 H          1  LIG1   0.1100
@<TRIPOS>BOND
     1    1    2 1
     2    1   25 1
     3    1   26 1
     4    1   27 1
     5    2    3 1
     6    2    4 1
     7    2    5 1
     8    4   28 1
     9    5   24 1
    10    5    6 1
    11    5   29 1
    12    6    7 1
    13    6   30 1
    14    6   31 1
    15    7    8 1
    16    7   32 1
    17    7   33 1
    18    8    9 1
    19    8   10 1
    20    8   23 1
    21   10   11 1
    22   10   34 1
    23   10   35 1
    24   11   22 1
    25   11   12 2
    26   12   13 1
    27   12   36 1
    28   13   14 2
    29   14   15 1
    30   14   22 1
    31   15   21 ar
    32   15   16 ar
    33   16   17 ar
    34   16   37 1
    35   17   18 ar
    36   17   38 1
    37   18   19 1
    38   18   20 ar
    39   20   21 ar
    40   20   39 1
    41   21   40 1
    42   22   41 1
    43   23   24 1
    44   23   42 1
    45   23   43 1
    46   24   44 1
    47   24   45 1
##########                 Name:     ZINC000159813177
##########          Protonation:                 none
##########               SMILES:   C[C@H](C(=O)NC1=CC=CC(Br)=C1)[N@@H+](C)C[C@@H]1CCC[C@@H]1O
##########            Long Name:   NO_LONG_NAME
##########          FlexRecCode: 1
##########               Number:                   76
##########   Ligand Source File: /nfs/db/export/3D/FF/ADMO/FFADMO.xbnj.db2.gz
##########                 Rank:                    1
##########               Setnum:                  221
##########             Matchnum:                    1
##########                Cloud:                    1
##########        Electrostatic:           -43.915451
##########                 Gist:             0.000000
##########        Van der Waals:           -29.005253
##########  Ligand Polar Desolv:            13.103652
########## Ligand Apolar Desolv:            -4.396198
##########      Internal Energy:             0.000000
##########      Receptor Energy:             0.000000
########## Receptor Desolvation:             0.000000
########## Receptor Hydrophobic:             0.000000
##########         Total Energy:           -64.213249
##########        Ligand Charge:             1.000000
##########            Arbitrary:    +999.9990
##########        Ligand Energy:             0.000000

@<TRIPOS>MOLECULE
 ZINC000159813177      none
   45    46     0     0     0



@<TRIPOS>ATOM
      1 C1        -16.6047    15.8126   -18.8879 C.3        1  LIG1  -0.1800
      2 C2        -16.9757    16.7054   -17.7020 C.3        1  LIG1   0.0100
      3 H1        -16.6527    17.7271   -17.9014 H          1  LIG1   0.1600
      4 C3        -16.2942    16.1968   -16.4579 C.2        1  LIG1   0.5000
      5 O1        -15.9852    16.9702   -15.5763 O.2        1  LIG1  -0.5000
      6 N1        -16.0281    14.8821   -16.3249 N.am       1  LIG1  -0.6400
      7 C4        -15.3953    14.4099   -15.1697 C.ar       1  LIG1   0.1300
      8 C5        -14.5152    15.2286   -14.4746 C.ar       1  LIG1  -0.1200
      9 C6        -13.8919    14.7601   -13.3343 C.ar       1  LIG1  -0.0900
     10 C7        -14.1432    13.4771   -12.8847 C.ar       1  LIG1  -0.0900
     11 C8        -15.0198    12.6583   -13.5751 C.ar       1  LIG1  -0.0700
     12 Br1       -15.3609    10.9044   -12.9558 Br         1  LIG1  -0.0300
     13 C9        -15.6506    13.1236   -14.7130 C.ar       1  LIG1  -0.0900
     14 N2        -18.4316    16.6813   -17.5076 N.4        1  LIG1  -0.3800
     15 H2        -18.7745    15.7431   -17.6505 H          1  LIG1   0.4300
     16 C10       -18.7503    17.1164   -16.1412 C.3        1  LIG1  -0.0600
     17 C11       -19.0694    17.5879   -18.4716 C.3        1  LIG1   0.0000
     18 C12       -20.5448    17.2128   -18.6253 C.3        1  LIG1  -0.1100
     19 H3        -21.0530    17.2960   -17.6646 H          1  LIG1   0.1000
     20 C13       -20.6704    15.7736   -19.1666 C.3        1  LIG1  -0.1400
     21 C14       -21.8876    15.8324   -20.1229 C.3        1  LIG1  -0.1200
     22 C15       -21.7282    17.2193   -20.7940 C.3        1  LIG1  -0.1600
     23 C16       -21.2176    18.1328   -19.6591 C.3        1  LIG1   0.1100
     24 H4        -22.0532    18.6622   -19.2013 H          1  LIG1   0.0800
     25 O2        -20.2684    19.0688   -20.1736 O.3        1  LIG1  -0.5800
     26 H5        -16.9278    14.7908   -18.6885 H          1  LIG1   0.0900
     27 H6        -17.0977    16.1804   -19.7878 H          1  LIG1   0.1000
     28 H7        -15.5244    15.8306   -19.0322 H          1  LIG1   0.1100
     29 H8        -16.2752    14.2636   -17.0300 H          1  LIG1   0.4200
     30 H9        -14.3180    16.2310   -14.8251 H          1  LIG1   0.1400
     31 H10       -13.2071    15.3964   -12.7936 H          1  LIG1   0.1500
     32 H11       -13.6543    13.1129   -11.9932 H          1  LIG1   0.1400
     33 H12       -16.3347    12.4845   -15.2516 H          1  LIG1   0.1500
     34 H13       -19.8306    17.0985   -15.9968 H          1  LIG1   0.1300
     35 H14       -18.2771    16.4438   -15.4259 H          1  LIG1   0.1200
     36 H15       -18.3798    18.1299   -15.9868 H          1  LIG1   0.1300
     37 H16       -18.9910    18.6139   -18.1122 H          1  LIG1   0.1400
     38 H17       -18.5702    17.5017   -19.4367 H          1  LIG1   0.1400
     39 H18       -19.7701    15.4913   -19.7121 H          1  LIG1   0.0800
     40 H19       -20.8589    15.0746   -18.3518 H          1  LIG1   0.0800
     41 H20       -21.8346    15.0359   -20.8650 H          1  LIG1   0.0800
     42 H21       -22.8214    15.7792   -19.5632 H          1  LIG1   0.0800
     43 H22       -20.9986    17.1704   -21.6024 H          1  LIG1   0.0800
     44 H23       -22.6886    17.5753   -21.1667 H          1  LIG1   0.0800
     45 H24       -19.8774    19.6427   -19.5006 H          1  LIG1   0.4000
@<TRIPOS>BOND
     1    1    2 1
     2    1   26 1
     3    1   27 1
     4    1   28 1
     5    2    3 1
     6    2    4 1
     7    2   14 1
     8    4    5 2
     9    4    6 am
    10    6    7 1
    11    6   29 1
    12    7   13 ar
    13    7    8 ar
    14    8    9 ar
    15    8   30 1
    16    9   10 ar
    17    9   31 1
    18   10   11 ar
    19   10   32 1
    20   11   12 1
    21   11   13 ar
    22   13   33 1
    23   14   15 1
    24   14   16 1
    25   14   17 1
    26   16   34 1
    27   16   35 1
    28   16   36 1
    29   17   18 1
    30   17   37 1
    31   17   38 1
    32   18   19 1
    33   18   23 1
    34   18   20 1
    35   20   21 1
    36   20   39 1
    37   20   40 1
    38   21   22 1
    39   21   41 1
    40   21   42 1
    41   22   23 1
    42   22   43 1
    43   22   44 1
    44   23   24 1
    45   23   25 1
    46   25   45 1
##########                 Name:     ZINC000339129941
##########          Protonation:                 none
##########               SMILES:   CC1=CC=C(NC(=O)[C@H](C)[N@@H+](C)C[C@@H]2CCC[C@@H]2O)C(Cl)=C1
##########            Long Name:   NO_LONG_NAME
##########          FlexRecCode: 1
##########               Number:                 1242
##########   Ligand Source File: /nfs/db/export/3D/DG/ADMO/DGADMO.xarj.db2.gz
##########                 Rank:                    1
##########               Setnum:                   66
##########             Matchnum:                    1
##########                Cloud:                    1
##########        Electrostatic:           -38.556091
##########                 Gist:             0.000000
##########        Van der Waals:           -31.828264
##########  Ligand Polar Desolv:            10.814953
########## Ligand Apolar Desolv:            -4.375396
##########      Internal Energy:             0.000000
##########      Receptor Energy:             0.000000
########## Receptor Desolvation:             0.000000
########## Receptor Hydrophobic:             0.000000
##########         Total Energy:           -63.944798
##########        Ligand Charge:             1.000000
##########            Arbitrary:    +999.9990
##########        Ligand Energy:             0.000000

@<TRIPOS>MOLECULE
 ZINC000339129941      none
   48    49     0     0     0



@<TRIPOS>ATOM
      1 C1        -13.0973    13.8879   -12.3351 C.3        1  LIG1  -0.1200
      2 C2        -14.0026    14.1242   -13.5164 C.ar       1  LIG1  -0.0700
      3 C3        -14.2900    15.4156   -13.9178 C.ar       1  LIG1  -0.1000
      4 C4        -15.1194    15.6362   -15.0003 C.ar       1  LIG1  -0.1100
      5 C5        -15.6646    14.5596   -15.6861 C.ar       1  LIG1   0.1200
      6 N1        -16.5050    14.7799   -16.7837 N.am       1  LIG1  -0.6400
      7 C6        -16.3397    15.8765   -17.5497 C.2        1  LIG1   0.5100
      8 O1        -15.4626    16.6723   -17.2880 O.2        1  LIG1  -0.5000
      9 C7        -17.2444    16.1136   -18.7312 C.3        1  LIG1   0.0100
     10 H1        -17.5718    15.1561   -19.1362 H          1  LIG1   0.1600
     11 C8        -16.4838    16.8898   -19.8083 C.3        1  LIG1  -0.1800
     12 N2        -18.4155    16.8904   -18.3031 N.4        1  LIG1  -0.3800
     13 H2        -18.9172    16.3787   -17.5928 H          1  LIG1   0.4300
     14 C9        -17.9743    18.1809   -17.7575 C.3        1  LIG1  -0.0600
     15 C10       -19.2975    17.1215   -19.4551 C.3        1  LIG1   0.0000
     16 C11       -20.7030    17.4678   -18.9598 C.3        1  LIG1  -0.1100
     17 H3        -20.6712    18.3683   -18.3465 H          1  LIG1   0.1000
     18 C12       -21.2803    16.2928   -18.1437 C.3        1  LIG1  -0.1400
     19 C13       -22.7832    16.2728   -18.5174 C.3        1  LIG1  -0.1200
     20 C14       -22.7648    16.6221   -20.0263 C.3        1  LIG1  -0.1600
     21 C15       -21.6467    17.6785   -20.1567 C.3        1  LIG1   0.1100
     22 H4        -22.0742    18.6806   -20.1248 H          1  LIG1   0.0800
     23 O2        -20.9349    17.4893   -21.3814 O.3        1  LIG1  -0.5700
     24 C16       -15.3738    13.2622   -15.2810 C.ar       1  LIG1  -0.0500
     25 Cl1       -16.0524    11.9120   -16.1354 Cl         1  LIG1  -0.0600
     26 C17       -14.5395    13.0486   -14.2003 C.ar       1  LIG1  -0.0900
     27 H5        -12.7741    14.8457   -11.9276 H          1  LIG1   0.0800
     28 H6        -13.6372    13.3309   -11.5692 H          1  LIG1   0.0700
     29 H7        -12.2259    13.3160   -12.6538 H          1  LIG1   0.0700
     30 H8        -13.8657    16.2531   -13.3840 H          1  LIG1   0.1400
     31 H9        -15.3437    16.6455   -15.3125 H          1  LIG1   0.1600
     32 H10       -17.2065    14.1434   -16.9929 H          1  LIG1   0.4200
     33 H11       -17.1382    17.0614   -20.6630 H          1  LIG1   0.1000
     34 H12       -16.1565    17.8475   -19.4034 H          1  LIG1   0.0900
     35 H13       -15.6148    16.3136   -20.1260 H          1  LIG1   0.1100
     36 H14       -18.8434    18.7572   -17.4399 H          1  LIG1   0.1300
     37 H15       -17.3200    18.0095   -16.9029 H          1  LIG1   0.1300
     38 H16       -17.4326    18.7337   -18.5249 H          1  LIG1   0.1300
     39 H17       -18.9084    17.9472   -20.0507 H          1  LIG1   0.1400
     40 H18       -19.3395    16.2204   -20.0669 H          1  LIG1   0.1400
     41 H19       -20.8027    15.3566   -18.4328 H          1  LIG1   0.0800
     42 H20       -21.1550    16.4721   -17.0759 H          1  LIG1   0.0800
     43 H21       -23.2083    15.2823   -18.3555 H          1  LIG1   0.0800
     44 H22       -23.3318    17.0268   -17.9530 H          1  LIG1   0.0800
     45 H23       -22.5271    15.7391   -20.6195 H          1  LIG1   0.0800
     46 H24       -23.7231    17.0418   -20.3324 H          1  LIG1   0.0800
     47 H25       -20.5497    16.6077   -21.4804 H          1  LIG1   0.4000
     48 H26       -14.3129    12.0409   -13.8845 H          1  LIG1   0.1400
@<TRIPOS>BOND
     1    1    2 1
     2    1   27 1
     3    1   28 1
     4    1   29 1
     5    2   26 ar
     6    2    3 ar
     7    3    4 ar
     8    3   30 1
     9    4    5 ar
    10    4   31 1
    11    5    6 1
    12    5   24 ar
    13    6    7 am
    14    6   32 1
    15    7    8 2
    16    7    9 1
    17    9   10 1
    18    9   11 1
    19    9   12 1
    20   11   33 1
    21   11   34 1
    22   11   35 1
    23   12   13 1
    24   12   14 1
    25   12   15 1
    26   14   36 1
    27   14   37 1
    28   14   38 1
    29   15   16 1
    30   15   39 1
    31   15   40 1
    32   16   17 1
    33   16   21 1
    34   16   18 1
    35   18   19 1
    36   18   41 1
    37   18   42 1
    38   19   20 1
    39   19   43 1
    40   19   44 1
    41   20   21 1
    42   20   45 1
    43   20   46 1
    44   21   22 1
    45   21   23 1
    46   23   47 1
    47   24   25 1
    48   24   26 ar
    49   26   48 1
##########                 Name:     ZINC000661093175
##########          Protonation:                 none
##########               SMILES:   CC1=CC=C(NC(=O)C[N@H+](C)[C@H](CO)CC2=CC=CC=C2)C(Cl)=C1
##########            Long Name:   NO_LONG_NAME
##########          FlexRecCode: 1
##########               Number:                 2612
##########   Ligand Source File: /nfs/db/export/3D/EG/ADMO/EGADMO.xagc.db2.gz
##########                 Rank:                    1
##########               Setnum:                   27
##########             Matchnum:                    1
##########                Cloud:                    1
##########        Electrostatic:           -37.196533
##########                 Gist:             0.000000
##########        Van der Waals:           -32.246990
##########  Ligand Polar Desolv:            11.319378
########## Ligand Apolar Desolv:            -4.981265
##########      Internal Energy:             0.000000
##########      Receptor Energy:             0.000000
########## Receptor Desolvation:             0.000000
########## Receptor Hydrophobic:             0.000000
##########         Total Energy:           -63.105415
##########        Ligand Charge:             1.000000
##########            Arbitrary:    +999.9990
##########        Ligand Energy:             0.000000

@<TRIPOS>MOLECULE
 ZINC000661093175      none
   48    49     0     0     0



@<TRIPOS>ATOM
      1 C1        -14.1618    10.3626   -11.9536 C.3        1  LIG1  -0.1200
      2 C2        -14.3532    11.5668   -12.8391 C.ar       1  LIG1  -0.0700
      3 C3        -15.1903    11.4898   -13.9367 C.ar       1  LIG1  -0.1000
      4 C4        -15.3684    12.5917   -14.7508 C.ar       1  LIG1  -0.1000
      5 C5        -14.7061    13.7779   -14.4659 C.ar       1  LIG1   0.1200
      6 N1        -14.8849    14.8963   -15.2886 N.am       1  LIG1  -0.6400
      7 C6        -16.0523    15.0755   -15.9377 C.2        1  LIG1   0.5000
      8 O1        -16.9480    14.2679   -15.8091 O.2        1  LIG1  -0.5100
      9 C7        -16.2448    16.2794   -16.8235 C.3        1  LIG1  -0.0300
     10 N2        -17.1733    15.9438   -17.9112 N.4        1  LIG1  -0.3700
     11 H1        -17.9208    15.3701   -17.5502 H          1  LIG1   0.4300
     12 C8        -16.4538    15.2080   -18.9595 C.3        1  LIG1  -0.0600
     13 C9        -17.7330    17.1790   -18.4760 C.3        1  LIG1   0.0300
     14 H2        -16.9518    17.9367   -18.5378 H          1  LIG1   0.1600
     15 C10       -18.8635    17.6843   -17.5773 C.3        1  LIG1   0.0500
     16 O2        -19.8876    16.6911   -17.4961 O.3        1  LIG1  -0.5800
     17 C11       -18.2817    16.8968   -19.8760 C.3        1  LIG1  -0.0900
     18 C12       -18.8557    18.1640   -20.4554 C.ar       1  LIG1  -0.1300
     19 C13       -20.1846    18.4805   -20.2441 C.ar       1  LIG1  -0.1100
     20 C14       -20.7112    19.6430   -20.7756 C.ar       1  LIG1  -0.1100
     21 C15       -19.9087    20.4889   -21.5181 C.ar       1  LIG1  -0.1000
     22 C16       -18.5795    20.1729   -21.7285 C.ar       1  LIG1  -0.1100
     23 C17       -18.0519    19.0126   -21.1933 C.ar       1  LIG1  -0.1300
     24 C18       -13.8655    13.8530   -13.3614 C.ar       1  LIG1  -0.0500
     25 Cl1       -13.0353    15.3341   -12.9999 Cl         1  LIG1  -0.0600
     26 C19       -13.6957    12.7483   -12.5485 C.ar       1  LIG1  -0.0900
     27 H3        -14.7545     9.5320   -12.3368 H          1  LIG1   0.0800
     28 H4        -13.1083    10.0828   -11.9434 H          1  LIG1   0.0700
     29 H5        -14.4841    10.6019   -10.9401 H          1  LIG1   0.0700
     30 H6        -15.7054    10.5668   -14.1582 H          1  LIG1   0.1400
     31 H7        -16.0220    12.5302   -15.6084 H          1  LIG1   0.1500
     32 H8        -14.1685    15.5421   -15.3915 H          1  LIG1   0.4200
     33 H9        -16.6552    17.1008   -16.2359 H          1  LIG1   0.1600
     34 H10       -15.2848    16.5781   -17.2445 H          1  LIG1   0.1800
     35 H11       -17.1427    14.9589   -19.7666 H          1  LIG1   0.1300
     36 H12       -15.6464    15.8277   -19.3494 H          1  LIG1   0.1200
     37 H13       -16.0386    14.2915   -18.5404 H          1  LIG1   0.1400
     38 H14       -18.4724    17.8855   -16.5799 H          1  LIG1   0.0800
     39 H15       -19.2786    18.6010   -17.9964 H          1  LIG1   0.1000
     40 H16       -19.5888    15.8469   -17.1313 H          1  LIG1   0.4100
     41 H17       -17.4762    16.5369   -20.5161 H          1  LIG1   0.1000
     42 H18       -19.0628    16.1391   -19.8142 H          1  LIG1   0.1200
     43 H19       -20.8116    17.8195   -19.6641 H          1  LIG1   0.1300
     44 H20       -21.7496    19.8899   -20.6111 H          1  LIG1   0.1300
     45 H21       -20.3202    21.3968   -21.9338 H          1  LIG1   0.1300
     46 H22       -17.9527    20.8337   -22.3088 H          1  LIG1   0.1300
     47 H23       -17.0135    18.7656   -21.3578 H          1  LIG1   0.1200
     48 H24       -13.0428    12.8055   -11.6902 H          1  LIG1   0.1400
@<TRIPOS>BOND
     1    1    2 1
     2    1   27 1
     3    1   28 1
     4    1   29 1
     5    2   26 ar
     6    2    3 ar
     7    3    4 ar
     8    3   30 1
     9    4    5 ar
    10    4   31 1
    11    5    6 1
    12    5   24 ar
    13    6    7 am
    14    6   32 1
    15    7    8 2
    16    7    9 1
    17    9   10 1
    18    9   33 1
    19    9   34 1
    20   10   11 1
    21   10   12 1
    22   10   13 1
    23   12   35 1
    24   12   36 1
    25   12   37 1
    26   13   14 1
    27   13   15 1
    28   13   17 1
    29   15   16 1
    30   15   38 1
    31   15   39 1
    32   16   40 1
    33   17   18 1
    34   17   41 1
    35   17   42 1
    36   18   23 ar
    37   18   19 ar
    38   19   20 ar
    39   19   43 1
    40   20   21 ar
    41   20   44 1
    42   21   22 ar
    43   21   45 1
    44   22   23 ar
    45   22   46 1
    46   23   47 1
    47   24   25 1
    48   24   26 ar
    49   26   48 1
##########                 Name:     ZINC000181263784
##########          Protonation:                 none
##########               SMILES:   C=C(C)C[N@@H+](C)CC(=O)NC1=CC(C(F)(F)F)=CC=C1Cl
##########            Long Name:   NO_LONG_NAME
##########          FlexRecCode: 1
##########               Number:                 2000
##########   Ligand Source File: /nfs/db/export/3D/DH/EDMO/DHEDMO.xae.db2.gz
##########                 Rank:                    1
##########               Setnum:                   78
##########             Matchnum:                    1
##########                Cloud:                    1
##########        Electrostatic:           -45.092167
##########                 Gist:             0.000000
##########        Van der Waals:           -29.253231
##########  Ligand Polar Desolv:            14.064083
########## Ligand Apolar Desolv:            -5.303195
##########      Internal Energy:             0.000000
##########      Receptor Energy:             0.000000
########## Receptor Desolvation:             0.000000
########## Receptor Hydrophobic:             0.000000
##########         Total Energy:           -65.584511
##########        Ligand Charge:             1.000000
##########            Arbitrary:    +999.9990
##########        Ligand Energy:             0.000000

@<TRIPOS>MOLECULE
 ZINC000181263784      none
   38    38     0     0     0



@<TRIPOS>ATOM
      1 C1        -16.4400    18.3480   -15.9551 C.2        1  LIG1  -0.1100
      2 C2        -17.5395    17.7138   -16.2790 C.2        1  LIG1  -0.2000
      3 C3        -18.2643    16.8875   -15.2480 C.3        1  LIG1  -0.1300
      4 C4        -18.0795    17.8105   -17.6826 C.3        1  LIG1   0.0300
      5 N1        -18.1363    16.4691   -18.2789 N.4        1  LIG1  -0.3700
      6 H1        -18.4508    15.8062   -17.5862 H          1  LIG1   0.4300
      7 C5        -19.0725    16.4757   -19.4109 C.3        1  LIG1  -0.0600
      8 C6        -16.7992    16.0862   -18.7515 C.3        1  LIG1  -0.0300
      9 C7        -15.9733    15.6047   -17.5864 C.2        1  LIG1   0.5000
     10 O1        -14.9421    16.1742   -17.2976 O.2        1  LIG1  -0.5000
     11 N2        -16.3808    14.5414   -16.8654 N.am       1  LIG1  -0.6400
     12 C8        -15.6137    14.0942   -15.7833 C.ar       1  LIG1   0.1300
     13 C9        -14.8492    14.9940   -15.0534 C.ar       1  LIG1  -0.0700
     14 C10       -14.0936    14.5497   -13.9856 C.ar       1  LIG1  -0.1600
     15 C11       -13.2639    15.5265   -13.1927 C.3        1  LIG1   0.5100
     16 F1        -13.4214    16.8110   -13.7243 F          1  LIG1  -0.1700
     17 F2        -13.6837    15.5194   -11.8582 F          1  LIG1  -0.1700
     18 F3        -11.9165    15.1560   -13.2600 F          1  LIG1  -0.1700
     19 C12       -14.0977    13.2103   -13.6431 C.ar       1  LIG1  -0.0600
     20 C13       -14.8576    12.3103   -14.3680 C.ar       1  LIG1  -0.0900
     21 C14       -15.6203    12.7489   -15.4336 C.ar       1  LIG1  -0.0300
     22 Cl1       -16.5744    11.6191   -16.3429 Cl         1  LIG1  -0.0400
     23 H2        -15.9205    18.9401   -16.6940 H          1  LIG1   0.1100
     24 H3        -16.0553    18.2822   -14.9480 H          1  LIG1   0.1200
     25 H4        -19.1497    16.4392   -15.6988 H          1  LIG1   0.0800
     26 H5        -17.6042    16.1005   -14.8835 H          1  LIG1   0.0700
     27 H6        -18.5634    17.5252   -14.4161 H          1  LIG1   0.0800
     28 H7        -19.0811    18.2399   -17.6578 H          1  LIG1   0.1400
     29 H8        -17.4263    18.4462   -18.2803 H          1  LIG1   0.1400
     30 H9        -19.1147    15.4805   -19.8533 H          1  LIG1   0.1400
     31 H10       -20.0647    16.7598   -19.0602 H          1  LIG1   0.1300
     32 H11       -18.7328    17.1920   -20.1591 H          1  LIG1   0.1200
     33 H12       -16.8889    15.2876   -19.4878 H          1  LIG1   0.1700
     34 H13       -16.3145    16.9490   -19.2084 H          1  LIG1   0.1700
     35 H14       -17.2056    14.0860   -17.0964 H          1  LIG1   0.4300
     36 H15       -14.8451    16.0405   -15.3202 H          1  LIG1   0.1700
     37 H16       -13.5060    12.8659   -12.8079 H          1  LIG1   0.1600
     38 H17       -14.8584    11.2646   -14.0982 H          1  LIG1   0.1600
@<TRIPOS>BOND
     1    1    2 2
     2    1   23 1
     3    1   24 1
     4    2    3 1
     5    2    4 1
     6    3   25 1
     7    3   26 1
     8    3   27 1
     9    4    5 1
    10    4   28 1
    11    4   29 1
    12    5    6 1
    13    5    7 1
    14    5    8 1
    15    7   30 1
    16    7   31 1
    17    7   32 1
    18    8    9 1
    19    8   33 1
    20    8   34 1
    21    9   10 2
    22    9   11 am
    23   11   12 1
    24   11   35 1
    25   12   21 ar
    26   12   13 ar
    27   13   14 ar
    28   13   36 1
    29   14   15 1
    30   14   19 ar
    31   15   16 1
    32   15   17 1
    33   15   18 1
    34   19   20 ar
    35   19   37 1
    36   20   21 ar
    37   20   38 1
    38   21   22 1
##########                 Name:     ZINC000524391869
##########          Protonation:                 none
##########               SMILES:   O=C(NC1=CC=C(Cl)C=C1)[C@]1(O)CC[N@@H+](CC2=CC=CC=C2)C1
##########            Long Name:   NO_LONG_NAME
##########          FlexRecCode: 1
##########               Number:                 2931
##########   Ligand Source File: /nfs/db/export/3D/EF/ADMO/EFADMO.xaky.db2.gz
##########                 Rank:                    1
##########               Setnum:                   42
##########             Matchnum:                    1
##########                Cloud:                    1
##########        Electrostatic:           -36.692070
##########                 Gist:             0.000000
##########        Van der Waals:           -34.754124
##########  Ligand Polar Desolv:            12.998685
########## Ligand Apolar Desolv:            -4.981167
##########      Internal Energy:             0.000000
##########      Receptor Energy:             0.000000
########## Receptor Desolvation:             0.000000
########## Receptor Hydrophobic:             0.000000
##########         Total Energy:           -63.428680
##########        Ligand Charge:             1.000000
##########            Arbitrary:    +999.9990
##########        Ligand Energy:             0.000000

@<TRIPOS>MOLECULE
 ZINC000524391869      none
   43    45     0     0     0



@<TRIPOS>ATOM
      1 O1        -16.8798    16.2802   -15.2793 O.2        1  LIG1  -0.5000
      2 C1        -16.1882    16.6616   -16.1998 C.2        1  LIG1   0.5000
      3 N1        -14.8680    16.3908   -16.2082 N.am       1  LIG1  -0.6500
      4 C2        -14.2940    15.6742   -15.1517 C.ar       1  LIG1   0.1300
      5 C3        -13.2890    16.2502   -14.3856 C.ar       1  LIG1  -0.1200
      6 C4        -12.7245    15.5411   -13.3436 C.ar       1  LIG1  -0.0900
      7 C5        -13.1592    14.2577   -13.0627 C.ar       1  LIG1  -0.0400
      8 Cl1       -12.4476    13.3691   -11.7521 Cl         1  LIG1  -0.0500
      9 C6        -14.1605    13.6814   -13.8246 C.ar       1  LIG1  -0.0900
     10 C7        -14.7323    14.3883   -14.8642 C.ar       1  LIG1  -0.1000
     11 C8        -16.8064    17.4331   -17.3373 C.3        1  LIG1   0.1100
     12 O2        -15.8684    18.3730   -17.8655 O.3        1  LIG1  -0.5300
     13 C9        -18.0858    18.1584   -16.8611 C.3        1  LIG1  -0.1700
     14 C10       -19.0461    17.9939   -18.0658 C.3        1  LIG1   0.0000
     15 N2        -18.7442    16.6248   -18.5566 N.4        1  LIG1  -0.3900
     16 H1        -19.2122    15.9388   -17.9836 H          1  LIG1   0.4300
     17 C11       -19.1622    16.4854   -19.9580 C.3        1  LIG1   0.0500
     18 C12       -20.6447    16.7330   -20.0670 C.ar       1  LIG1  -0.1600
     19 C13       -21.5327    15.6821   -19.9333 C.ar       1  LIG1  -0.0900
     20 C14       -22.8925    15.9091   -20.0333 C.ar       1  LIG1  -0.1100
     21 C15       -23.3645    17.1873   -20.2664 C.ar       1  LIG1  -0.0800
     22 C16       -22.4766    18.2385   -20.3991 C.ar       1  LIG1  -0.1100
     23 C17       -21.1169    18.0120   -20.2949 C.ar       1  LIG1  -0.1000
     24 C18       -17.2778    16.4700   -18.4426 C.3        1  LIG1   0.0100
     25 H2        -14.3157    16.6924   -16.9464 H          1  LIG1   0.4100
     26 H3        -12.9489    17.2515   -14.6048 H          1  LIG1   0.1400
     27 H4        -11.9430    15.9885   -12.7474 H          1  LIG1   0.1400
     28 H5        -14.4979    12.6796   -13.6034 H          1  LIG1   0.1400
     29 H6        -15.5138    13.9383   -15.4583 H          1  LIG1   0.1500
     30 H7        -15.0595    17.9703   -18.2097 H          1  LIG1   0.4000
     31 H8        -18.4947    17.6763   -15.9732 H          1  LIG1   0.1100
     32 H9        -17.8834    19.2123   -16.6705 H          1  LIG1   0.1300
     33 H10       -20.0846    18.0664   -17.7428 H          1  LIG1   0.1400
     34 H11       -18.8288    18.7350   -18.8351 H          1  LIG1   0.1400
     35 H12       -18.6268    17.2105   -20.5708 H          1  LIG1   0.1400
     36 H13       -18.9356    15.4777   -20.3061 H          1  LIG1   0.1400
     37 H14       -21.1640    14.6835   -19.7511 H          1  LIG1   0.1300
     38 H15       -23.5863    15.0879   -19.9295 H          1  LIG1   0.1400
     39 H16       -24.4270    17.3647   -20.3452 H          1  LIG1   0.1400
     40 H17       -22.8454    19.2371   -20.5816 H          1  LIG1   0.1400
     41 H18       -20.4233    18.8333   -20.3987 H          1  LIG1   0.1300
     42 H19       -16.8023    16.7290   -19.3886 H          1  LIG1   0.1600
     43 H20       -17.0329    15.4434   -18.1697 H          1  LIG1   0.1600
@<TRIPOS>BOND
     1    1    2 2
     2    2    3 am
     3    2   11 1
     4    3    4 1
     5    3   25 1
     6    4   10 ar
     7    4    5 ar
     8    5    6 ar
     9    5   26 1
    10    6    7 ar
    11    6   27 1
    12    7    8 1
    13    7    9 ar
    14    9   10 ar
    15    9   28 1
    16   10   29 1
    17   11   24 1
    18   11   12 1
    19   11   13 1
    20   12   30 1
    21   13   14 1
    22   13   31 1
    23   13   32 1
    24   14   15 1
    25   14   33 1
    26   14   34 1
    27   15   16 1
    28   15   17 1
    29   15   24 1
    30   17   18 1
    31   17   35 1
    32   17   36 1
    33   18   23 ar
    34   18   19 ar
    35   19   20 ar
    36   19   37 1
    37   20   21 ar
    38   20   38 1
    39   21   22 ar
    40   21   39 1
    41   22   23 ar
    42   22   40 1
    43   23   41 1
    44   24   42 1
    45   24   43 1
##########                 Name:     ZINC000639361711
##########          Protonation:                 none
##########               SMILES:   O[C@@H]1C[N@@H+](CC2=CNN=C2C2=CC=CN=C2)C[C@H]1OC1=CC=CC=C1
##########            Long Name:   NO_LONG_NAME
##########          FlexRecCode: 1
##########               Number:                 9422
##########   Ligand Source File: /nfs/db/export/3D/EE/ADMO/EEADMO.xbdv.db2.gz
##########                 Rank:                    1
##########               Setnum:                  545
##########             Matchnum:                    1
##########                Cloud:                    1
##########        Electrostatic:           -46.610260
##########                 Gist:             0.000000
##########        Van der Waals:           -31.892574
##########  Ligand Polar Desolv:            16.728378
########## Ligand Apolar Desolv:            -2.503064
##########      Internal Energy:             0.000000
##########      Receptor Energy:             0.000000
########## Receptor Desolvation:             0.000000
########## Receptor Hydrophobic:             0.000000
##########         Total Energy:           -64.277527
##########        Ligand Charge:             1.000000
##########            Arbitrary:    +999.9990
##########        Ligand Energy:             0.000000

@<TRIPOS>MOLECULE
 ZINC000639361711      none
   46    49     0     0     0



@<TRIPOS>ATOM
      1 O1        -18.0484    17.3300   -14.7425 O.3        1  LIG1  -0.5400
      2 C1        -17.0457    17.1332   -15.7415 C.3        1  LIG1   0.0700
      3 H1        -16.1961    17.7910   -15.5586 H          1  LIG1   0.1100
      4 C2        -17.6297    17.3914   -17.1429 C.3        1  LIG1  -0.0400
      5 N1        -17.5342    16.1207   -17.8936 N.4        1  LIG1  -0.3900
      6 H2        -18.3945    15.6006   -17.8081 H          1  LIG1   0.4300
      7 C3        -17.2420    16.3887   -19.3081 C.3        1  LIG1   0.0800
      8 C4        -18.5124    16.7805   -20.0178 C.2        1  LIG1  -0.3100
      9 C5        -19.7118    16.1711   -19.8963 C.2        1  LIG1   0.1200
     10 N2        -20.5906    16.8183   -20.6914 N.pl3      1  LIG1  -0.4500
     11 N3        -19.9129    17.8657   -21.3285 N.2        1  LIG1  -0.2500
     12 C6        -18.6615    17.8508   -20.9211 C.2        1  LIG1   0.1400
     13 C7        -17.5933    18.7895   -21.3466 C.ar       1  LIG1  -0.1000
     14 C8        -17.2385    18.8975   -22.6935 C.ar       1  LIG1  -0.0400
     15 C9        -16.2363    19.7879   -23.0393 C.ar       1  LIG1  -0.1600
     16 C10       -15.6244    20.5350   -22.0498 C.ar       1  LIG1   0.1200
     17 N4        -15.9811    20.4113   -20.7857 N.ar       1  LIG1  -0.4700
     18 C11       -16.9326    19.5814   -20.4101 C.ar       1  LIG1   0.1100
     19 C12       -16.4157    15.3664   -17.2721 C.3        1  LIG1   0.0000
     20 C13       -16.5876    15.6569   -15.7583 C.3        1  LIG1   0.0700
     21 H3        -17.3525    15.0117   -15.3261 H          1  LIG1   0.1200
     22 O2        -15.3460    15.4980   -15.0687 O.3        1  LIG1  -0.2900
     23 C14       -15.1265    14.3026   -14.4608 C.ar       1  LIG1   0.1000
     24 C15       -15.6900    13.1456   -14.9790 C.ar       1  LIG1  -0.1900
     25 C16       -15.4649    11.9316   -14.3595 C.ar       1  LIG1  -0.0800
     26 C17       -14.6790    11.8690   -13.2236 C.ar       1  LIG1  -0.1400
     27 C18       -14.1166    13.0207   -12.7049 C.ar       1  LIG1  -0.0800
     28 C19       -14.3336    14.2363   -13.3243 C.ar       1  LIG1  -0.1400
     29 H4        -18.8429    16.7941   -14.8717 H          1  LIG1   0.4000
     30 H5        -18.6729    17.6963   -17.0601 H          1  LIG1   0.1400
     31 H6        -17.0528    18.1658   -17.6485 H          1  LIG1   0.1400
     32 H7        -16.5191    17.2011   -19.3822 H          1  LIG1   0.1400
     33 H8        -16.8294    15.4918   -19.7701 H          1  LIG1   0.1400
     34 H9        -19.9296    15.3165   -19.2727 H          1  LIG1   0.1900
     35 H10       -21.5284    16.5963   -20.8024 H          1  LIG1   0.4600
     36 H11       -17.7331    18.3010   -23.4460 H          1  LIG1   0.1400
     37 H12       -15.9354    19.8977   -24.0708 H          1  LIG1   0.1500
     38 H13       -14.8421    21.2304   -22.3156 H          1  LIG1   0.1700
     39 H14       -17.1970    19.5083   -19.3655 H          1  LIG1   0.1600
     40 H15       -16.5128    14.2994   -17.4729 H          1  LIG1   0.1500
     41 H16       -15.4553    15.7399   -17.6276 H          1  LIG1   0.1500
     42 H17       -16.3045    13.1942   -15.8658 H          1  LIG1   0.1300
     43 H18       -15.9034    11.0307   -14.7624 H          1  LIG1   0.1300
     44 H19       -14.5045    10.9189   -12.7404 H          1  LIG1   0.1300
     45 H20       -13.5034    12.9692   -11.8174 H          1  LIG1   0.1400
     46 H21       -13.8940    15.1356   -12.9188 H          1  LIG1   0.1300
@<TRIPOS>BOND
     1    1    2 1
     2    1   29 1
     3    2    3 1
     4    2   20 1
     5    2    4 1
     6    4    5 1
     7    4   30 1
     8    4   31 1
     9    5    6 1
    10    5    7 1
    11    5   19 1
    12    7    8 1
    13    7   32 1
    14    7   33 1
    15    8   12 1
    16    8    9 2
    17    9   10 1
    18    9   34 1
    19   10   11 1
    20   10   35 1
    21   11   12 2
    22   12   13 1
    23   13   18 ar
    24   13   14 ar
    25   14   15 ar
    26   14   36 1
    27   15   16 ar
    28   15   37 1
    29   16   17 ar
    30   16   38 1
    31   17   18 ar
    32   18   39 1
    33   19   20 1
    34   19   40 1
    35   19   41 1
    36   20   21 1
    37   20   22 1
    38   22   23 1
    39   23   28 ar
    40   23   24 ar
    41   24   25 ar
    42   24   42 1
    43   25   26 ar
    44   25   43 1
    45   26   27 ar
    46   26   44 1
    47   27   28 ar
    48   27   45 1
    49   28   46 1
##########                 Name:     ZINC000661092878
##########          Protonation:                 none
##########               SMILES:   C[N@@H+](CC#CC1=CC=C(Cl)C=C1)[C@H](CO)CC1=CC=CC=C1
##########            Long Name:   NO_LONG_NAME
##########          FlexRecCode: 1
##########               Number:                 4910
##########   Ligand Source File: /nfs/db/export/3D/DG/EDMO/DGEDMO.xcd.db2.gz
##########                 Rank:                    1
##########               Setnum:                   66
##########             Matchnum:                    1
##########                Cloud:                    1
##########        Electrostatic:           -33.489647
##########                 Gist:             0.000000
##########        Van der Waals:           -34.312469
##########  Ligand Polar Desolv:            10.574408
########## Ligand Apolar Desolv:            -7.196764
##########      Internal Energy:             0.000000
##########      Receptor Energy:             0.000000
########## Receptor Desolvation:             0.000000
########## Receptor Hydrophobic:             0.000000
##########         Total Energy:           -64.424469
##########        Ligand Charge:             1.000000
##########            Arbitrary:    +999.9990
##########        Ligand Energy:             0.000000

@<TRIPOS>MOLECULE
 ZINC000661092878      none
   43    44     0     0     0



@<TRIPOS>ATOM
      1 C1        -17.3277    15.3929   -19.2795 C.3        1  LIG1  -0.0500
      2 N1        -18.0930    16.3784   -18.5043 N.4        1  LIG1  -0.3800
      3 H1        -18.8520    15.9152   -18.0273 H          1  LIG1   0.4200
      4 C2        -17.2116    17.0169   -17.5177 C.3        1  LIG1   0.1300
      5 C3        -16.6685    15.9934   -16.6100 C.1        1  LIG1  -0.2600
      6 C4        -16.2354    15.1770   -15.8858 C.1        1  LIG1  -0.0100
      7 C5        -15.7071    14.1813   -15.0026 C.ar       1  LIG1  -0.0300
      8 C6        -16.0550    12.8404   -15.1707 C.ar       1  LIG1  -0.0700
      9 C7        -15.5430    11.8857   -14.3167 C.ar       1  LIG1  -0.1100
     10 C8        -14.6859    12.2556   -13.2941 C.ar       1  LIG1  -0.0100
     11 Cl1       -14.0455    11.0486   -12.2234 Cl         1  LIG1  -0.0500
     12 C9        -14.3371    13.5846   -13.1225 C.ar       1  LIG1  -0.1100
     13 C10       -14.8380    14.5473   -13.9741 C.ar       1  LIG1  -0.0700
     14 C11       -18.6350    17.3999   -19.4102 C.3        1  LIG1   0.0300
     15 H2        -18.9837    16.9244   -20.3270 H          1  LIG1   0.1500
     16 C12       -17.5413    18.4153   -19.7468 C.3        1  LIG1   0.0500
     17 O1        -16.4495    17.7465   -20.3817 O.3        1  LIG1  -0.5700
     18 C13       -19.8040    18.1158   -18.7306 C.3        1  LIG1  -0.1000
     19 C14       -21.0446    17.2672   -18.8396 C.ar       1  LIG1  -0.1300
     20 C15       -21.8852    17.4086   -19.9279 C.ar       1  LIG1  -0.1100
     21 C16       -23.0233    16.6303   -20.0280 C.ar       1  LIG1  -0.1100
     22 C17       -23.3204    15.7102   -19.0399 C.ar       1  LIG1  -0.1000
     23 C18       -22.4792    15.5681   -17.9522 C.ar       1  LIG1  -0.1100
     24 C19       -21.3390    16.3435   -17.8543 C.ar       1  LIG1  -0.1400
     25 H3        -16.5078    15.8933   -19.7949 H          1  LIG1   0.1200
     26 H4        -16.9254    14.6349   -18.6072 H          1  LIG1   0.1300
     27 H5        -17.9817    14.9191   -20.0115 H          1  LIG1   0.1300
     28 H6        -16.3917    17.5173   -18.0331 H          1  LIG1   0.1700
     29 H7        -17.7794    17.7483   -16.9427 H          1  LIG1   0.1500
     30 H8        -16.7241    12.5508   -15.9675 H          1  LIG1   0.1400
     31 H9        -15.8115    10.8475   -14.4458 H          1  LIG1   0.1500
     32 H10       -13.6684    13.8674   -12.3230 H          1  LIG1   0.1500
     33 H11       -14.5650    15.5837   -13.8395 H          1  LIG1   0.1400
     34 H12       -17.9434    19.1733   -20.4190 H          1  LIG1   0.0800
     35 H13       -17.1924    18.8909   -18.8302 H          1  LIG1   0.1000
     36 H14       -16.6876    17.2998   -21.2056 H          1  LIG1   0.4100
     37 H15       -19.5676    18.2803   -17.6794 H          1  LIG1   0.1100
     38 H16       -19.9760    19.0751   -19.2188 H          1  LIG1   0.1200
     39 H17       -21.6531    18.1276   -20.6997 H          1  LIG1   0.1300
     40 H18       -23.6803    16.7412   -20.8776 H          1  LIG1   0.1300
     41 H19       -24.2098    15.1025   -19.1177 H          1  LIG1   0.1300
     42 H20       -22.7115    14.8495   -17.1802 H          1  LIG1   0.1300
     43 H21       -20.6818    16.2326   -17.0044 H          1  LIG1   0.1200
@<TRIPOS>BOND
     1    1    2 1
     2    1   25 1
     3    1   26 1
     4    1   27 1
     5    2    3 1
     6    2    4 1
     7    2   14 1
     8    4    5 1
     9    4   28 1
    10    4   29 1
    11    5    6 3
    12    6    7 1
    13    7   13 ar
    14    7    8 ar
    15    8    9 ar
    16    8   30 1
    17    9   10 ar
    18    9   31 1
    19   10   11 1
    20   10   12 ar
    21   12   13 ar
    22   12   32 1
    23   13   33 1
    24   14   15 1
    25   14   16 1
    26   14   18 1
    27   16   17 1
    28   16   34 1
    29   16   35 1
    30   17   36 1
    31   18   19 1
    32   18   37 1
    33   18   38 1
    34   19   24 ar
    35   19   20 ar
    36   20   21 ar
    37   20   39 1
    38   21   22 ar
    39   21   40 1
    40   22   23 ar
    41   22   41 1
    42   23   24 ar
    43   23   42 1
    44   24   43 1
##########                 Name:     ZINC000357721411
##########          Protonation:                 none
##########               SMILES:   CCC[C@@H]([NH2+]C(C)C)C(=O)NCCC1=C2C=CNC2=CC=C1
##########            Long Name:   NO_LONG_NAME
##########          FlexRecCode: 1
##########               Number:                 2025
##########   Ligand Source File: /nfs/db/export/3D/DF/ADRO/DFADRO.xaer.db2.gz
##########                 Rank:                    1
##########               Setnum:                   18
##########             Matchnum:                    1
##########                Cloud:                    1
##########        Electrostatic:           -45.733818
##########                 Gist:             0.000000
##########        Van der Waals:           -25.385162
##########  Ligand Polar Desolv:            12.460598
########## Ligand Apolar Desolv:            -4.476426
##########      Internal Energy:             0.000000
##########      Receptor Energy:             0.000000
########## Receptor Desolvation:             0.000000
########## Receptor Hydrophobic:             0.000000
##########         Total Energy:           -63.134808
##########        Ligand Charge:             1.000000
##########            Arbitrary:    +999.9990
##########        Ligand Energy:             0.000000

@<TRIPOS>MOLECULE
 ZINC000357721411      none
   50    51     0     0     0



@<TRIPOS>ATOM
      1 C1        -15.4318    17.8464   -20.8534 C.3        1  LIG1  -0.1600
      2 C2        -16.4203    18.2112   -19.7439 C.3        1  LIG1  -0.1400
      3 C3        -17.4076    17.0600   -19.5416 C.3        1  LIG1  -0.1400
      4 C4        -18.3960    17.4247   -18.4323 C.3        1  LIG1   0.0000
      5 H1        -18.6761    18.4740   -18.5258 H          1  LIG1   0.1700
      6 N1        -19.5958    16.5854   -18.5501 N.4        1  LIG1  -0.4900
      7 H2        -19.8379    16.4794   -19.5239 H          1  LIG1   0.4300
      8 H3        -19.4123    15.6781   -18.1484 H          1  LIG1   0.4300
      9 C5        -20.7103    17.2212   -17.8348 C.3        1  LIG1   0.0100
     10 C6        -21.3144    18.3229   -18.7079 C.3        1  LIG1  -0.1800
     11 C7        -21.7805    16.1730   -17.5232 C.3        1  LIG1  -0.1800
     12 C8        -17.7517    17.1945   -17.0896 C.2        1  LIG1   0.5100
     13 O1        -17.6199    18.1176   -16.3140 O.2        1  LIG1  -0.5200
     14 N2        -17.3221    15.9629   -16.7507 N.am       1  LIG1  -0.7000
     15 C9        -16.6958    15.7390   -15.4453 C.3        1  LIG1   0.1200
     16 C10       -15.2711    15.2183   -15.6458 C.3        1  LIG1  -0.0900
     17 C11       -14.6269    14.9880   -14.3030 C.ar       1  LIG1  -0.0500
     18 C12       -14.7367    13.7449   -13.6774 C.ar       1  LIG1  -0.1000
     19 C13       -15.3855    12.4804   -14.0320 C.2        1  LIG1  -0.2100
     20 C14       -15.1500    11.6228   -13.0265 C.2        1  LIG1   0.0600
     21 N3        -14.4034    12.2348   -12.0567 N.pl3      1  LIG1  -0.5900
     22 C15       -14.1333    13.5340   -12.4240 C.ar       1  LIG1   0.0900
     23 C16       -13.4317    14.5733   -11.8221 C.ar       1  LIG1  -0.1200
     24 C17       -13.3359    15.7923   -12.4572 C.ar       1  LIG1  -0.1000
     25 C18       -13.9285    15.9936   -13.6960 C.ar       1  LIG1  -0.1300
     26 H4        -14.7285    18.6667   -20.9974 H          1  LIG1   0.0700
     27 H5        -14.8865    16.9454   -20.5723 H          1  LIG1   0.0600
     28 H6        -15.9760    17.6674   -21.7806 H          1  LIG1   0.0700
     29 H7        -15.8760    18.3902   -18.8167 H          1  LIG1   0.0800
     30 H8        -16.9655    19.1122   -20.0250 H          1  LIG1   0.0600
     31 H9        -17.9518    16.8810   -20.4689 H          1  LIG1   0.1000
     32 H10       -16.8624    16.1590   -19.2607 H          1  LIG1   0.1200
     33 H11       -20.3445    17.6547   -16.9040 H          1  LIG1   0.1500
     34 H12       -22.1414    18.7946   -18.1771 H          1  LIG1   0.0800
     35 H13       -20.5521    19.0696   -18.9298 H          1  LIG1   0.1100
     36 H14       -21.6803    17.8893   -19.6386 H          1  LIG1   0.0800
     37 H15       -22.6075    16.6446   -16.9926 H          1  LIG1   0.0800
     38 H16       -22.1462    15.7394   -18.4541 H          1  LIG1   0.1100
     39 H17       -21.3501    15.3881   -16.9013 H          1  LIG1   0.0800
     40 H18       -17.4275    15.2246   -17.3711 H          1  LIG1   0.4100
     41 H19       -16.6652    16.6773   -14.8914 H          1  LIG1   0.0800
     42 H20       -17.2754    15.0053   -14.8854 H          1  LIG1   0.0800
     43 H21       -15.3018    14.2801   -16.1997 H          1  LIG1   0.0800
     44 H22       -14.6915    15.9521   -16.2057 H          1  LIG1   0.0800
     45 H23       -15.9472    12.2766   -14.9318 H          1  LIG1   0.1400
     46 H24       -15.4985    10.6014   -12.9883 H          1  LIG1   0.1700
     47 H25       -14.1085    11.8158   -11.2331 H          1  LIG1   0.4200
     48 H26       -12.9639    14.4254   -10.8599 H          1  LIG1   0.1200
     49 H27       -12.7907    16.5980   -11.9881 H          1  LIG1   0.1300
     50 H28       -13.8439    16.9552   -14.1803 H          1  LIG1   0.1200
@<TRIPOS>BOND
     1    1    2 1
     2    1   26 1
     3    1   27 1
     4    1   28 1
     5    2    3 1
     6    2   29 1
     7    2   30 1
     8    3    4 1
     9    3   31 1
    10    3   32 1
    11    4    5 1
    12    4    6 1
    13    4   12 1
    14    6    7 1
    15    6    8 1
    16    6    9 1
    17    9   10 1
    18    9   11 1
    19    9   33 1
    20   10   34 1
    21   10   35 1
    22   10   36 1
    23   11   37 1
    24   11   38 1
    25   11   39 1
    26   12   13 2
    27   12   14 am
    28   14   15 1
    29   14   40 1
    30   15   16 1
    31   15   41 1
    32   15   42 1
    33   16   17 1
    34   16   43 1
    35   16   44 1
    36   17   25 ar
    37   17   18 ar
    38   18   22 ar
    39   18   19 1
    40   19   20 2
    41   19   45 1
    42   20   21 1
    43   20   46 1
    44   21   22 1
    45   21   47 1
    46   22   23 ar
    47   23   24 ar
    48   23   48 1
    49   24   25 ar
    50   24   49 1
    51   25   50 1
##########                 Name:     ZINC000245552657
##########          Protonation:                 none
##########               SMILES:   CC1=CC=C(NC(=O)[C@H](C)[N@@H+](C)C[C@@H]2CCCC[C@H]2O)C(Cl)=C1
##########            Long Name:   NO_LONG_NAME
##########          FlexRecCode: 1
##########               Number:                14879
##########   Ligand Source File: /nfs/db/export/3D/EG/ADMO/EGADMO.xatq.db2.gz
##########                 Rank:                    1
##########               Setnum:                   68
##########             Matchnum:                    1
##########                Cloud:                    1
##########        Electrostatic:           -36.644276
##########                 Gist:             0.000000
##########        Van der Waals:           -31.560673
##########  Ligand Polar Desolv:             9.764979
########## Ligand Apolar Desolv:            -4.916430
##########      Internal Energy:             0.000000
##########      Receptor Energy:             0.000000
########## Receptor Desolvation:             0.000000
########## Receptor Hydrophobic:             0.000000
##########         Total Energy:           -63.356400
##########        Ligand Charge:             1.000000
##########            Arbitrary:    +999.9990
##########        Ligand Energy:             0.000000

@<TRIPOS>MOLECULE
 ZINC000245552657      none
   51    52     0     0     0



@<TRIPOS>ATOM
      1 C1        -13.1481    13.9338   -12.1267 C.3        1  LIG1  -0.1200
      2 C2        -13.9979    14.1357   -13.3549 C.ar       1  LIG1  -0.0700
      3 C3        -14.1034    15.3923   -13.9216 C.ar       1  LIG1  -0.1000
      4 C4        -14.8814    15.5813   -15.0475 C.ar       1  LIG1  -0.1100
      5 C5        -15.5577    14.5078   -15.6106 C.ar       1  LIG1   0.1200
      6 N1        -16.3464    14.6961   -16.7515 N.am       1  LIG1  -0.6400
      7 C6        -16.0249    15.6551   -17.6423 C.2        1  LIG1   0.5100
      8 O1        -15.0520    16.3549   -17.4552 O.2        1  LIG1  -0.5000
      9 C7        -16.8739    15.8578   -18.8707 C.3        1  LIG1   0.0100
     10 H1        -17.3221    14.9083   -19.1634 H          1  LIG1   0.1600
     11 C8        -16.0018    16.3835   -20.0125 C.3        1  LIG1  -0.1800
     12 N2        -17.9351    16.8304   -18.5775 N.4        1  LIG1  -0.3700
     13 H2        -18.5104    16.4837   -17.8245 H          1  LIG1   0.4300
     14 C9        -17.3313    18.1102   -18.1833 C.3        1  LIG1  -0.0600
     15 C10       -18.7629    17.0278   -19.7750 C.3        1  LIG1  -0.0100
     16 C11       -20.1152    17.6168   -19.3688 C.3        1  LIG1  -0.1000
     17 H3        -19.9672    18.3612   -18.5866 H          1  LIG1   0.1000
     18 C12       -21.0212    16.5005   -18.8456 C.3        1  LIG1  -0.1300
     19 C13       -22.3736    17.0894   -18.4393 C.3        1  LIG1  -0.1200
     20 C14       -23.0280    17.7497   -19.6544 C.3        1  LIG1  -0.1200
     21 C15       -22.1219    18.8661   -20.1778 C.3        1  LIG1  -0.1500
     22 C16       -20.7696    18.2772   -20.5839 C.3        1  LIG1   0.1200
     23 H4        -20.9177    17.5326   -21.3663 H          1  LIG1   0.0700
     24 O2        -19.9235    19.3198   -21.0728 O.3        1  LIG1  -0.5700
     25 C17       -15.4497    13.2454   -15.0390 C.ar       1  LIG1  -0.0500
     26 Cl1       -16.2929    11.8992   -15.7392 Cl         1  LIG1  -0.0600
     27 C18       -14.6659    13.0625   -13.9157 C.ar       1  LIG1  -0.0900
     28 H5        -12.7041    14.8845   -11.8318 H          1  LIG1   0.0800
     29 H6        -13.7681    13.5547   -11.3142 H          1  LIG1   0.0800
     30 H7        -12.3576    13.2161   -12.3459 H          1  LIG1   0.0700
     31 H8        -13.5770    16.2274   -13.4834 H          1  LIG1   0.1400
     32 H9        -14.9636    16.5635   -15.4890 H          1  LIG1   0.1600
     33 H10       -17.1245    14.1364   -16.9011 H          1  LIG1   0.4200
     34 H11       -16.6158    16.5302   -20.9010 H          1  LIG1   0.1000
     35 H12       -15.5535    17.3331   -19.7198 H          1  LIG1   0.0900
     36 H13       -15.2143    15.6619   -20.2302 H          1  LIG1   0.1100
     37 H14       -18.1187    18.8317   -17.9658 H          1  LIG1   0.1300
     38 H15       -16.7171    17.9636   -17.2946 H          1  LIG1   0.1300
     39 H16       -16.7098    18.4846   -18.9966 H          1  LIG1   0.1300
     40 H17       -18.2582    17.7127   -20.4566 H          1  LIG1   0.1400
     41 H18       -18.9180    16.0699   -20.2714 H          1  LIG1   0.1300
     42 H19       -21.1693    15.7561   -19.6278 H          1  LIG1   0.0800
     43 H20       -20.5550    16.0299   -17.9799 H          1  LIG1   0.0600
     44 H21       -23.0191    16.2940   -18.0665 H          1  LIG1   0.0800
     45 H22       -22.2255    17.8339   -17.6571 H          1  LIG1   0.0700
     46 H23       -23.1761    17.0054   -20.4367 H          1  LIG1   0.0700
     47 H24       -23.9914    18.1694   -19.3651 H          1  LIG1   0.0800
     48 H25       -22.5881    19.3366   -21.0434 H          1  LIG1   0.0800
     49 H26       -21.9738    19.6106   -19.3954 H          1  LIG1   0.0800
     50 H27       -19.7480    20.0189   -20.4281 H          1  LIG1   0.3900
     51 H28       -14.5812    12.0820   -13.4707 H          1  LIG1   0.1400
@<TRIPOS>BOND
     1    1    2 1
     2    1   28 1
     3    1   29 1
     4    1   30 1
     5    2   27 ar
     6    2    3 ar
     7    3    4 ar
     8    3   31 1
     9    4    5 ar
    10    4   32 1
    11    5    6 1
    12    5   25 ar
    13    6    7 am
    14    6   33 1
    15    7    8 2
    16    7    9 1
    17    9   10 1
    18    9   11 1
    19    9   12 1
    20   11   34 1
    21   11   35 1
    22   11   36 1
    23   12   13 1
    24   12   14 1
    25   12   15 1
    26   14   37 1
    27   14   38 1
    28   14   39 1
    29   15   16 1
    30   15   40 1
    31   15   41 1
    32   16   17 1
    33   16   22 1
    34   16   18 1
    35   18   19 1
    36   18   42 1
    37   18   43 1
    38   19   20 1
    39   19   44 1
    40   19   45 1
    41   20   21 1
    42   20   46 1
    43   20   47 1
    44   21   22 1
    45   21   48 1
    46   21   49 1
    47   22   23 1
    48   22   24 1
    49   24   50 1
    50   25   26 1
    51   25   27 ar
    52   27   51 1
##########                 Name:     ZINC000347856451
##########          Protonation:                 none
##########               SMILES:   CC1=CC=CC=C1N1C=C(C[N@H+]2CC[C@@H](C3CC3)C2)N=N1
##########            Long Name:   NO_LONG_NAME
##########          FlexRecCode: 1
##########               Number:                 6173
##########   Ligand Source File: /nfs/db/export/3D/CF/ADMO/CFADMO.xatm.db2.gz
##########                 Rank:                    1
##########               Setnum:                   17
##########             Matchnum:                    1
##########                Cloud:                    1
##########        Electrostatic:           -40.416374
##########                 Gist:             0.000000
##########        Van der Waals:           -30.108328
##########  Ligand Polar Desolv:            14.823235
########## Ligand Apolar Desolv:            -6.667643
##########      Internal Energy:             0.000000
##########      Receptor Energy:             0.000000
########## Receptor Desolvation:             0.000000
########## Receptor Hydrophobic:             0.000000
##########         Total Energy:           -62.369110
##########        Ligand Charge:             1.000000
##########            Arbitrary:    +999.9990
##########        Ligand Energy:             0.000000

@<TRIPOS>MOLECULE
 ZINC000347856451      none
   44    47     0     0     0



@<TRIPOS>ATOM
      1 C1        -13.1992    15.5775   -13.4313 C.3        1  LIG1  -0.1200
      2 C2        -13.9907    14.2980   -13.5186 C.ar       1  LIG1  -0.0500
      3 C3        -13.7748    13.2879   -12.6020 C.ar       1  LIG1  -0.1000
      4 C4        -14.5012    12.1136   -12.6811 C.ar       1  LIG1  -0.0800
      5 C5        -15.4454    11.9473   -13.6773 C.ar       1  LIG1  -0.1100
      6 C6        -15.6654    12.9542   -14.5972 C.ar       1  LIG1  -0.0900
      7 C7        -14.9419    14.1361   -14.5169 C.ar       1  LIG1   0.0800
      8 N1        -15.1635    15.1602   -15.4492 N.pl3      1  LIG1  -0.2200
      9 C8        -16.0652    15.1315   -16.4684 C.2        1  LIG1   0.0000
     10 C9        -15.9421    16.3168   -17.1104 C.2        1  LIG1  -0.1000
     11 C10       -16.7244    16.7753   -18.3142 C.3        1  LIG1   0.1000
     12 N2        -18.1473    16.4662   -18.1202 N.4        1  LIG1  -0.3900
     13 H1        -18.2750    15.4723   -18.0023 H          1  LIG1   0.4200
     14 C11       -18.6707    17.1909   -16.9419 C.3        1  LIG1   0.0000
     15 C12       -20.1224    17.5903   -17.2653 C.3        1  LIG1  -0.1400
     16 C13       -20.3720    17.0764   -18.7019 C.3        1  LIG1  -0.0700
     17 H2        -20.8665    16.1053   -18.6837 H          1  LIG1   0.1000
     18 C14       -21.1963    18.0866   -19.5025 C.3        1  LIG1  -0.1600
     19 C15       -22.1357    17.5375   -20.5781 C.3        1  LIG1  -0.1700
     20 C16       -22.7094    18.1010   -19.2765 C.3        1  LIG1  -0.1700
     21 C17       -18.9393    16.9503   -19.2798 C.3        1  LIG1   0.0000
     22 N3        -14.9898    17.0014   -16.4670 N.2        1  LIG1  -0.2400
     23 N4        -14.5530    16.2930   -15.4865 N.2        1  LIG1  -0.0400
     24 H3        -12.5072    15.5201   -12.5912 H          1  LIG1   0.0900
     25 H4        -12.6385    15.7214   -14.3549 H          1  LIG1   0.0800
     26 H5        -13.8797    16.4164   -13.2850 H          1  LIG1   0.0600
     27 H6        -13.0377    13.4148   -11.8230 H          1  LIG1   0.1400
     28 H7        -14.3303    11.3248   -11.9634 H          1  LIG1   0.1400
     29 H8        -16.0111    11.0293   -13.7367 H          1  LIG1   0.1400
     30 H9        -16.4028    12.8236   -15.3755 H          1  LIG1   0.1300
     31 H10       -16.7415    14.3264   -16.7149 H          1  LIG1   0.2000
     32 H11       -16.6001    17.8508   -18.4402 H          1  LIG1   0.1500
     33 H12       -16.3587    16.2607   -19.2028 H          1  LIG1   0.1500
     34 H13       -18.6504    16.5411   -16.0672 H          1  LIG1   0.1300
     35 H14       -18.0720    18.0833   -16.7589 H          1  LIG1   0.1400
     36 H15       -20.8104    17.1127   -16.5678 H          1  LIG1   0.1000
     37 H16       -20.2343    18.6738   -17.2262 H          1  LIG1   0.1100
     38 H17       -20.7078    19.0409   -19.7000 H          1  LIG1   0.1200
     39 H18       -22.2653    18.1303   -21.4836 H          1  LIG1   0.1000
     40 H19       -22.1665    16.4566   -20.7152 H          1  LIG1   0.1000
     41 H20       -23.1176    17.3909   -18.5574 H          1  LIG1   0.1000
     42 H21       -23.2165    19.0647   -19.3256 H          1  LIG1   0.1000
     43 H22       -18.5733    17.9203   -19.6163 H          1  LIG1   0.1400
     44 H23       -18.9153    16.2255   -20.0936 H          1  LIG1   0.1400
@<TRIPOS>BOND
     1    1    2 1
     2    1   24 1
     3    1   25 1
     4    1   26 1
     5    2    7 ar
     6    2    3 ar
     7    3    4 ar
     8    3   27 1
     9    4    5 ar
    10    4   28 1
    11    5    6 ar
    12    5   29 1
    13    6    7 ar
    14    6   30 1
    15    7    8 1
    16    8   23 1
    17    8    9 1
    18    9   10 2
    19    9   31 1
    20   10   11 1
    21   10   22 1
    22   11   12 1
    23   11   32 1
    24   11   33 1
    25   12   13 1
    26   12   21 1
    27   12   14 1
    28   14   15 1
    29   14   34 1
    30   14   35 1
    31   15   16 1
    32   15   36 1
    33   15   37 1
    34   16   17 1
    35   16   18 1
    36   16   21 1
    37   18   20 1
    38   18   19 1
    39   18   38 1
    40   19   20 1
    41   19   39 1
    42   19   40 1
    43   20   41 1
    44   20   42 1
    45   21   43 1
    46   21   44 1
    47   22   23 2
##########                 Name:     ZINC000297706036
##########          Protonation:                 none
##########               SMILES:   CC[C@@H]1C[N@@H+]2CCC[C@@H]2CN1C(=O)NCC1=CN2C=NC=C2C=C1
##########            Long Name:   NO_LONG_NAME
##########          FlexRecCode: 1
##########               Number:                 3614
##########   Ligand Source File: /nfs/db/export/3D/EE/ADMO/EEADMO.xavr.db2.gz
##########                 Rank:                    1
##########               Setnum:                  181
##########             Matchnum:                    1
##########                Cloud:                    1
##########        Electrostatic:           -46.449276
##########                 Gist:             0.000000
##########        Van der Waals:           -34.178555
##########  Ligand Polar Desolv:            21.256424
########## Ligand Apolar Desolv:            -5.692054
##########      Internal Energy:             0.000000
##########      Receptor Energy:             0.000000
########## Receptor Desolvation:             0.000000
########## Receptor Hydrophobic:             0.000000
##########         Total Energy:           -65.063461
##########        Ligand Charge:             1.000000
##########            Arbitrary:    +999.9990
##########        Ligand Energy:             0.000000

@<TRIPOS>MOLECULE
 ZINC000297706036      none
   50    53     0     0     0



@<TRIPOS>ATOM
      1 C1        -16.1559    18.2110   -20.3142 C.3        1  LIG1  -0.1300
      2 C2        -15.8635    16.8696   -19.6389 C.3        1  LIG1  -0.1200
      3 C3        -17.0704    16.4492   -18.7948 C.3        1  LIG1   0.1500
      4 H1        -16.8254    15.4691   -18.3167 H          1  LIG1   0.1000
      5 C4        -18.2763    16.2432   -19.7264 C.3        1  LIG1  -0.0200
      6 N1        -19.5321    16.1351   -18.9055 N.4        1  LIG1  -0.3900
      7 H2        -19.4319    15.2680   -18.2690 H          1  LIG1   0.4300
      8 C5        -20.7858    15.9589   -19.7426 C.3        1  LIG1  -0.0100
      9 C6        -21.8366    16.7730   -19.0135 C.3        1  LIG1  -0.1400
     10 C7        -21.0480    17.9596   -18.4937 C.3        1  LIG1  -0.1400
     11 C8        -19.7755    17.3152   -17.9663 C.3        1  LIG1   0.0200
     12 H3        -19.9289    16.9031   -16.9680 H          1  LIG1   0.1500
     13 C9        -18.5653    18.2386   -17.9215 C.3        1  LIG1   0.1000
     14 N2        -17.3510    17.4432   -17.7314 N.am       1  LIG1  -0.6300
     15 C10       -16.6049    17.6072   -16.5481 C.2        1  LIG1   0.7100
     16 O1        -16.8807    18.4527   -15.6908 O.2        1  LIG1  -0.5400
     17 N3        -15.5276    16.7405   -16.3988 N.am       1  LIG1  -0.7400
     18 C11       -14.6701    16.7775   -15.2362 C.3        1  LIG1   0.1900
     19 C12       -14.7181    15.4449   -14.5339 C.2        1  LIG1  -0.1300
     20 C13       -15.4845    14.4558   -15.0318 C.2        1  LIG1   0.0800
     21 N4        -15.5413    13.2369   -14.4075 N.pl3      1  LIG1  -0.3700
     22 C14       -16.2073    12.0931   -14.6752 C.2        1  LIG1   0.1500
     23 N5        -15.9218    11.2005   -13.7613 N.2        1  LIG1  -0.4500
     24 C15       -15.0709    11.7169   -12.8732 C.2        1  LIG1   0.0000
     25 C16       -14.8085    13.0159   -13.2580 C.2        1  LIG1  -0.0100
     26 C17       -14.0032    14.0449   -12.7289 C.2        1  LIG1  -0.0600
     27 C18       -13.9567    15.2438   -13.3666 C.2        1  LIG1  -0.1200
     28 H4        -15.2970    18.5102   -20.9150 H          1  LIG1   0.0600
     29 H5        -17.0312    18.1115   -20.9561 H          1  LIG1   0.0600
     30 H6        -16.3476    18.9669   -19.5527 H          1  LIG1   0.0400
     31 H7        -15.6716    16.1137   -20.4005 H          1  LIG1   0.1100
     32 H8        -14.9881    16.9690   -18.9971 H          1  LIG1   0.0700
     33 H9        -18.3695    17.0887   -20.3903 H          1  LIG1   0.1300
     34 H10       -18.1498    15.3294   -20.2860 H          1  LIG1   0.1400
     35 H11       -20.6085    16.3482   -20.7350 H          1  LIG1   0.1300
     36 H12       -21.0512    14.9118   -19.7696 H          1  LIG1   0.1300
     37 H13       -22.6164    17.0957   -19.7008 H          1  LIG1   0.1000
     38 H14       -22.2631    16.2002   -18.1921 H          1  LIG1   0.1100
     39 H15       -20.8266    18.6737   -19.3023 H          1  LIG1   0.1000
     40 H16       -21.5958    18.4795   -17.6921 H          1  LIG1   0.1200
     41 H17       -18.4789    18.7616   -18.8614 H          1  LIG1   0.1200
     42 H18       -18.6740    18.9331   -17.1035 H          1  LIG1   0.1000
     43 H19       -15.3679    16.0948   -17.1196 H          1  LIG1   0.3900
     44 H20       -13.6467    16.9881   -15.5462 H          1  LIG1   0.0800
     45 H21       -15.0123    17.5585   -14.5572 H          1  LIG1   0.0900
     46 H22       -16.0595    14.6245   -15.9303 H          1  LIG1   0.1700
     47 H23       -16.8722    11.9390   -15.5122 H          1  LIG1   0.2100
     48 H24       -14.6624    11.2112   -12.0108 H          1  LIG1   0.1900
     49 H25       -13.4272    13.8808   -11.8302 H          1  LIG1   0.1500
     50 H26       -13.3444    16.0426   -12.9747 H          1  LIG1   0.1400
@<TRIPOS>BOND
     1    1    2 1
     2    1   28 1
     3    1   29 1
     4    1   30 1
     5    2    3 1
     6    2   31 1
     7    2   32 1
     8    3    4 1
     9    3   14 1
    10    3    5 1
    11    5    6 1
    12    5   33 1
    13    5   34 1
    14    6    7 1
    15    6   11 1
    16    6    8 1
    17    8    9 1
    18    8   35 1
    19    8   36 1
    20    9   10 1
    21    9   37 1
    22    9   38 1
    23   10   11 1
    24   10   39 1
    25   10   40 1
    26   11   12 1
    27   11   13 1
    28   13   14 1
    29   13   41 1
    30   13   42 1
    31   14   15 am
    32   15   16 2
    33   15   17 am
    34   17   18 1
    35   17   43 1
    36   18   19 1
    37   18   44 1
    38   18   45 1
    39   19   27 1
    40   19   20 2
    41   20   21 1
    42   20   46 1
    43   21   25 1
    44   21   22 1
    45   22   23 2
    46   22   47 1
    47   23   24 1
    48   24   25 2
    49   24   48 1
    50   25   26 1
    51   26   27 2
    52   26   49 1
    53   27   50 1
##########                 Name:     ZINC000588928690
##########          Protonation:                 none
##########               SMILES:   O=[N+]([O-])C1=CC2=C(C=C1C[NH2+]C[C@H](CO)C1=CC=CN=C1)OCCO2
##########            Long Name:   NO_LONG_NAME
##########          FlexRecCode: 1
##########               Number:                11555
##########   Ligand Source File: /nfs/db/export/3D/ED/BDRO/EDBDRO.xcu.db2.gz
##########                 Rank:                    1
##########               Setnum:                   27
##########             Matchnum:                    1
##########                Cloud:                    1
##########        Electrostatic:           -42.261906
##########                 Gist:             0.000000
##########        Van der Waals:           -37.228260
##########  Ligand Polar Desolv:            17.932720
########## Ligand Apolar Desolv:            -3.258902
##########      Internal Energy:             0.000000
##########      Receptor Energy:             0.000000
########## Receptor Desolvation:             0.000000
########## Receptor Hydrophobic:             0.000000
##########         Total Energy:           -64.816345
##########        Ligand Charge:             1.000000
##########            Arbitrary:    +999.9990
##########        Ligand Energy:             0.000000

@<TRIPOS>MOLECULE
 ZINC000588928690      none
   45    47     0     0     0



@<TRIPOS>ATOM
      1 O1        -16.6110    18.9993   -16.5520 O.2        1  LIG1  -0.1000
      2 N1        -15.5676    18.5175   -16.1486 N.pl3      1  LIG1   0.0300
      3 O2        -14.5330    19.1559   -16.2233 O.2        1  LIG1  -0.2000
      4 C1        -15.5579    17.1585   -15.5623 C.ar       1  LIG1  -0.0300
      5 C2        -14.3744    16.6151   -15.0999 C.ar       1  LIG1  -0.0400
      6 C3        -14.3627    15.3422   -14.5492 C.ar       1  LIG1   0.0900
      7 C4        -15.5443    14.6159   -14.4621 C.ar       1  LIG1   0.1100
      8 C5        -16.7284    15.1666   -14.9294 C.ar       1  LIG1  -0.0800
      9 C6        -16.7339    16.4372   -15.4730 C.ar       1  LIG1  -0.0900
     10 C7        -18.0221    17.0330   -15.9795 C.3        1  LIG1   0.0300
     11 N2        -18.2013    16.6814   -17.3945 N.4        1  LIG1  -0.5000
     12 H1        -17.4284    17.0449   -17.9319 H          1  LIG1   0.4300
     13 H2        -18.2346    15.6774   -17.4901 H          1  LIG1   0.4200
     14 C8        -19.4570    17.2622   -17.8882 C.3        1  LIG1   0.0000
     15 C9        -19.6435    16.8960   -19.3620 C.3        1  LIG1  -0.0500
     16 H3        -19.3312    15.8641   -19.5223 H          1  LIG1   0.1100
     17 C10       -18.7941    17.8266   -20.2302 C.3        1  LIG1   0.0600
     18 O3        -17.4173    17.6848   -19.8748 O.3        1  LIG1  -0.6000
     19 C11       -21.0955    17.0456   -19.7370 C.ar       1  LIG1  -0.1600
     20 C12       -21.7277    18.2736   -19.6201 C.ar       1  LIG1  -0.0600
     21 C13       -23.0646    18.3644   -19.9772 C.ar       1  LIG1  -0.1600
     22 C14       -23.7175    17.2356   -20.4344 C.ar       1  LIG1   0.1200
     23 N3        -23.0839    16.0831   -20.5328 N.ar       1  LIG1  -0.4800
     24 C15       -21.8120    15.9612   -20.2073 C.ar       1  LIG1   0.1100
     25 O4        -15.5565    13.3682   -13.9182 O.3        1  LIG1  -0.2900
     26 C16       -14.2933    12.7042   -13.8026 C.3        1  LIG1   0.0100
     27 C17       -13.2802    13.6969   -13.2168 C.3        1  LIG1   0.0100
     28 O5        -13.1886    14.8187   -14.1018 O.3        1  LIG1  -0.2900
     29 H4        -13.4577    17.1821   -15.1676 H          1  LIG1   0.1800
     30 H5        -17.6477    14.6034   -14.8648 H          1  LIG1   0.1700
     31 H6        -18.8570    16.6402   -15.3991 H          1  LIG1   0.1500
     32 H7        -17.9861    18.1174   -15.8763 H          1  LIG1   0.1600
     33 H8        -20.2918    16.8695   -17.3078 H          1  LIG1   0.1400
     34 H9        -19.4209    18.3468   -17.7852 H          1  LIG1   0.1400
     35 H10       -18.9270    17.5657   -21.2801 H          1  LIG1   0.0800
     36 H11       -19.1064    18.8585   -20.0699 H          1  LIG1   0.0700
     37 H12       -17.0709    16.7897   -19.9925 H          1  LIG1   0.4100
     38 H13       -21.1921    19.1391   -19.2589 H          1  LIG1   0.1400
     39 H14       -23.5890    19.3052   -19.8984 H          1  LIG1   0.1500
     40 H15       -24.7587    17.2978   -20.7141 H          1  LIG1   0.1700
     41 H16       -21.3267    15.0009   -20.3012 H          1  LIG1   0.1600
     42 H17       -14.3897    11.8437   -13.1406 H          1  LIG1   0.1400
     43 H18       -13.9592    12.3758   -14.7868 H          1  LIG1   0.0900
     44 H19       -13.6174    14.0299   -12.2351 H          1  LIG1   0.0900
     45 H20       -12.3052    13.2179   -13.1282 H          1  LIG1   0.1400
@<TRIPOS>BOND
     1    1    2 2
     2    2    3 2
     3    2    4 1
     4    4    9 ar
     5    4    5 ar
     6    5    6 ar
     7    5   29 1
     8    6   28 1
     9    6    7 ar
    10    7    8 ar
    11    7   25 1
    12    8    9 ar
    13    8   30 1
    14    9   10 1
    15   10   11 1
    16   10   31 1
    17   10   32 1
    18   11   12 1
    19   11   13 1
    20   11   14 1
    21   14   15 1
    22   14   33 1
    23   14   34 1
    24   15   16 1
    25   15   17 1
    26   15   19 1
    27   17   18 1
    28   17   35 1
    29   17   36 1
    30   18   37 1
    31   19   24 ar
    32   19   20 ar
    33   20   21 ar
    34   20   38 1
    35   21   22 ar
    36   21   39 1
    37   22   23 ar
    38   22   40 1
    39   23   24 ar
    40   24   41 1
    41   25   26 1
    42   26   27 1
    43   26   42 1
    44   26   43 1
    45   27   28 1
    46   27   44 1
    47   27   45 1
##########                 Name:     ZINC000631272166
##########          Protonation:                 none
##########               SMILES:   CC1=CC=CC=C1N1C=C(C[NH2+][C@@H]2COCC[C@H]2O)N=N1
##########            Long Name:   NO_LONG_NAME
##########          FlexRecCode: 1
##########               Number:                 1084
##########   Ligand Source File: /nfs/db/export/3D/CC/ADMO/CCADMO.xasg.db2.gz
##########                 Rank:                    1
##########               Setnum:                  105
##########             Matchnum:                    1
##########                Cloud:                    1
##########        Electrostatic:           -47.403061
##########                 Gist:             0.000000
##########        Van der Waals:           -29.059845
##########  Ligand Polar Desolv:            16.325470
########## Ligand Apolar Desolv:            -2.707192
##########      Internal Energy:             0.000000
##########      Receptor Energy:             0.000000
########## Receptor Desolvation:             0.000000
########## Receptor Hydrophobic:             0.000000
##########         Total Energy:           -62.844627
##########        Ligand Charge:             1.000000
##########            Arbitrary:    +999.9990
##########        Ligand Energy:             0.000000

@<TRIPOS>MOLECULE
 ZINC000631272166      none
   42    44     0     0     0



@<TRIPOS>ATOM
      1 C1        -16.4084    12.4424   -15.6165 C.3        1  LIG1  -0.1200
      2 C2        -15.4932    12.8057   -14.4756 C.ar       1  LIG1  -0.0500
      3 C3        -15.0212    11.8227   -13.6283 C.ar       1  LIG1  -0.1000
      4 C4        -14.1809    12.1552   -12.5814 C.ar       1  LIG1  -0.0800
      5 C5        -13.8107    13.4720   -12.3799 C.ar       1  LIG1  -0.1100
      6 C6        -14.2801    14.4597   -13.2240 C.ar       1  LIG1  -0.0900
      7 C7        -15.1191    14.1282   -14.2790 C.ar       1  LIG1   0.0800
      8 N1        -15.5968    15.1287   -15.1378 N.pl3      1  LIG1  -0.2200
      9 C8        -16.9035    15.4524   -15.3386 C.2        1  LIG1   0.0100
     10 C9        -16.9046    16.4635   -16.2387 C.2        1  LIG1  -0.1000
     11 C10       -18.1116    17.1759   -16.7924 C.3        1  LIG1   0.1000
     12 N2        -18.5729    16.4875   -18.0054 N.4        1  LIG1  -0.5000
     13 H1        -17.8356    16.4897   -18.6944 H          1  LIG1   0.4400
     14 H2        -18.8188    15.5355   -17.7790 H          1  LIG1   0.4300
     15 C11       -19.7494    17.1820   -18.5453 C.3        1  LIG1   0.0000
     16 H3        -19.6079    18.2594   -18.4590 H          1  LIG1   0.1600
     17 C12       -20.9951    16.7651   -17.7590 C.3        1  LIG1   0.0500
     18 O1        -22.1462    17.3971   -18.3225 O.3        1  LIG1  -0.3500
     19 C13       -22.3971    17.0450   -19.6845 C.3        1  LIG1   0.0500
     20 C14       -21.2077    17.4732   -20.5482 C.3        1  LIG1  -0.1900
     21 C15       -19.9342    16.8064   -20.0187 C.3        1  LIG1   0.0900
     22 H4        -20.0247    15.7240   -20.1091 H          1  LIG1   0.0800
     23 O2        -18.8088    17.2570   -20.7754 O.3        1  LIG1  -0.5700
     24 N3        -15.6241    16.7059   -16.5407 N.2        1  LIG1  -0.2400
     25 N4        -14.8753    15.9043   -15.8695 N.2        1  LIG1  -0.0400
     26 H5        -16.5882    11.3674   -15.6100 H          1  LIG1   0.0900
     27 H6        -17.3556    12.9699   -15.5045 H          1  LIG1   0.0800
     28 H7        -15.9433    12.7274   -16.5602 H          1  LIG1   0.0600
     29 H8        -15.3089    10.7933   -13.7830 H          1  LIG1   0.1400
     30 H9        -13.8132    11.3848   -11.9198 H          1  LIG1   0.1400
     31 H10       -13.1544    13.7287   -11.5616 H          1  LIG1   0.1400
     32 H11       -13.9910    15.4882   -13.0659 H          1  LIG1   0.1300
     33 H12       -17.7647    14.9953   -14.8742 H          1  LIG1   0.2000
     34 H13       -18.9080    17.1736   -16.0483 H          1  LIG1   0.1500
     35 H14       -17.8460    18.2044   -17.0372 H          1  LIG1   0.1500
     36 H15       -21.1125    15.6827   -17.8112 H          1  LIG1   0.0800
     37 H16       -20.8864    17.0693   -16.7179 H          1  LIG1   0.1300
     38 H17       -22.5327    15.9663   -19.7620 H          1  LIG1   0.0700
     39 H18       -23.2984    17.5508   -20.0306 H          1  LIG1   0.1200
     40 H19       -21.3776    17.1660   -21.5802 H          1  LIG1   0.1000
     41 H20       -21.0963    18.5565   -20.5033 H          1  LIG1   0.1000
     42 H21       -17.9661    16.8784   -20.4899 H          1  LIG1   0.4100
@<TRIPOS>BOND
     1    1    2 1
     2    1   26 1
     3    1   27 1
     4    1   28 1
     5    2    7 ar
     6    2    3 ar
     7    3    4 ar
     8    3   29 1
     9    4    5 ar
    10    4   30 1
    11    5    6 ar
    12    5   31 1
    13    6    7 ar
    14    6   32 1
    15    7    8 1
    16    8   25 1
    17    8    9 1
    18    9   10 2
    19    9   33 1
    20   10   11 1
    21   10   24 1
    22   11   12 1
    23   11   34 1
    24   11   35 1
    25   12   13 1
    26   12   14 1
    27   12   15 1
    28   15   16 1
    29   15   21 1
    30   15   17 1
    31   17   18 1
    32   17   36 1
    33   17   37 1
    34   18   19 1
    35   19   20 1
    36   19   38 1
    37   19   39 1
    38   20   21 1
    39   20   40 1
    40   20   41 1
    41   21   22 1
    42   21   23 1
    43   23   42 1
    44   24   25 2
##########                 Name:     ZINC000288360168
##########          Protonation:                 none
##########               SMILES:   CC(C)(C)C(=O)C(=O)N1CC[C@]2(CC[N@@H+](CC3=CC=CC=C3)C2)C1
##########            Long Name:   NO_LONG_NAME
##########          FlexRecCode: 1
##########               Number:                13939
##########   Ligand Source File: /nfs/db/export/3D/EF/ADMO/EFADMO.xbvo.db2.gz
##########                 Rank:                    1
##########               Setnum:                   38
##########             Matchnum:                    1
##########                Cloud:                    1
##########        Electrostatic:           -37.715935
##########                 Gist:             0.000000
##########        Van der Waals:           -34.721020
##########  Ligand Polar Desolv:            15.114858
########## Ligand Apolar Desolv:            -6.177985
##########      Internal Energy:             0.000000
##########      Receptor Energy:             0.000000
########## Receptor Desolvation:             0.000000
########## Receptor Hydrophobic:             0.000000
##########         Total Energy:           -63.500076
##########        Ligand Charge:             1.000000
##########            Arbitrary:    +999.9990
##########        Ligand Energy:             0.000000

@<TRIPOS>MOLECULE
 ZINC000288360168      none
   53    55     0     0     0



@<TRIPOS>ATOM
      1 C1        -13.2778    15.1460   -11.7744 C.3        1  LIG1  -0.1400
      2 C2        -13.2411    14.2913   -13.0429 C.3        1  LIG1  -0.0900
      3 C3        -11.8270    14.3056   -13.6268 C.3        1  LIG1  -0.1500
      4 C4        -13.6370    12.8536   -12.7006 C.3        1  LIG1  -0.1500
      5 C5        -14.2078    14.8514   -14.0541 C.2        1  LIG1   0.3700
      6 O1        -15.1197    14.1708   -14.4593 O.2        1  LIG1  -0.4100
      7 C6        -14.0388    16.2457   -14.5543 C.2        1  LIG1   0.4900
      8 O2        -13.1226    16.9295   -14.1471 O.2        1  LIG1  -0.4900
      9 N1        -14.9034    16.7466   -15.4587 N.am       1  LIG1  -0.6000
     10 C7        -14.8508    18.1011   -16.0410 C.3        1  LIG1   0.0900
     11 C8        -15.6017    17.9854   -17.3935 C.3        1  LIG1  -0.1200
     12 C9        -16.7108    16.9777   -17.0421 C.3        1  LIG1  -0.1000
     13 C10       -17.9325    17.6872   -16.4450 C.3        1  LIG1  -0.1300
     14 C11       -18.9037    17.7633   -17.6533 C.3        1  LIG1   0.0000
     15 N2        -18.6650    16.4820   -18.3682 N.4        1  LIG1  -0.3900
     16 H1        -19.1710    15.7336   -17.9189 H          1  LIG1   0.4300
     17 C12       -19.0781    16.6013   -19.7729 C.3        1  LIG1   0.0500
     18 C13       -20.5456    16.9370   -19.8381 C.ar       1  LIG1  -0.1600
     19 C14       -21.0389    17.6774   -20.8963 C.ar       1  LIG1  -0.0900
     20 C15       -22.3852    17.9854   -20.9562 C.ar       1  LIG1  -0.1100
     21 C16       -23.2383    17.5528   -19.9575 C.ar       1  LIG1  -0.0800
     22 C17       -22.7452    16.8115   -18.9008 C.ar       1  LIG1  -0.1100
     23 C18       -21.3997    16.4999   -18.8429 C.ar       1  LIG1  -0.0900
     24 C19       -17.2056    16.2357   -18.2824 C.3        1  LIG1   0.0100
     25 C20       -16.0548    16.0302   -16.0351 C.3        1  LIG1   0.1200
     26 H2        -14.2852    15.1358   -11.3584 H          1  LIG1   0.0600
     27 H3        -12.5786    14.7409   -11.0429 H          1  LIG1   0.0600
     28 H4        -12.9957    16.1703   -12.0181 H          1  LIG1   0.0700
     29 H5        -11.8009    13.6967   -14.5304 H          1  LIG1   0.0800
     30 H6        -11.5448    15.3298   -13.8706 H          1  LIG1   0.0800
     31 H7        -11.1277    13.9004   -12.8953 H          1  LIG1   0.0600
     32 H8        -13.6109    12.2445   -13.6042 H          1  LIG1   0.0600
     33 H9        -12.9377    12.4486   -11.9692 H          1  LIG1   0.0800
     34 H10       -14.6444    12.8434   -12.2844 H          1  LIG1   0.0800
     35 H11       -15.3541    18.8141   -15.3880 H          1  LIG1   0.0800
     36 H12       -13.8164    18.4024   -16.2065 H          1  LIG1   0.1100
     37 H13       -16.0248    18.9454   -17.6894 H          1  LIG1   0.1000
     38 H14       -14.9477    17.5917   -18.1716 H          1  LIG1   0.0900
     39 H15       -18.3657    17.0974   -15.6371 H          1  LIG1   0.1000
     40 H16       -17.6684    18.6859   -16.0975 H          1  LIG1   0.1200
     41 H17       -19.9372    17.8262   -17.3123 H          1  LIG1   0.1400
     42 H18       -18.6566    18.6113   -18.2920 H          1  LIG1   0.1300
     43 H19       -18.5027    17.3917   -20.2549 H          1  LIG1   0.1400
     44 H20       -18.8983    15.6566   -20.2860 H          1  LIG1   0.1400
     45 H21       -20.3724    18.0155   -21.6759 H          1  LIG1   0.1300
     46 H22       -22.7704    18.5644   -21.7825 H          1  LIG1   0.1400
     47 H23       -24.2901    17.7934   -20.0051 H          1  LIG1   0.1400
     48 H24       -23.4117    16.4736   -18.1209 H          1  LIG1   0.1400
     49 H25       -21.0145    15.9209   -18.0167 H          1  LIG1   0.1300
     50 H26       -16.7086    16.6225   -19.1721 H          1  LIG1   0.1400
     51 H27       -17.0124    15.1679   -18.1806 H          1  LIG1   0.1400
     52 H28       -15.7207    15.1237   -16.5398 H          1  LIG1   0.0900
     53 H29       -16.7627    15.7777   -15.2456 H          1  LIG1   0.0900
@<TRIPOS>BOND
     1    1    2 1
     2    1   26 1
     3    1   27 1
     4    1   28 1
     5    2    3 1
     6    2    4 1
     7    2    5 1
     8    3   29 1
     9    3   30 1
    10    3   31 1
    11    4   32 1
    12    4   33 1
    13    4   34 1
    14    5    6 2
    15    5    7 1
    16    7    8 2
    17    7    9 am
    18    9   25 1
    19    9   10 1
    20   10   11 1
    21   10   35 1
    22   10   36 1
    23   11   12 1
    24   11   37 1
    25   11   38 1
    26   12   24 1
    27   12   13 1
    28   12   25 1
    29   13   14 1
    30   13   39 1
    31   13   40 1
    32   14   15 1
    33   14   41 1
    34   14   42 1
    35   15   16 1
    36   15   17 1
    37   15   24 1
    38   17   18 1
    39   17   43 1
    40   17   44 1
    41   18   23 ar
    42   18   19 ar
    43   19   20 ar
    44   19   45 1
    45   20   21 ar
    46   20   46 1
    47   21   22 ar
    48   21   47 1
    49   22   23 ar
    50   22   48 1
    51   23   49 1
    52   24   50 1
    53   24   51 1
    54   25   52 1
    55   25   53 1
##########                 Name:     ZINC000172626725
##########          Protonation:                 none
##########               SMILES:   CC(C)CCN1C=CC=C1C[NH2+]CC1=CC=CN=C1N1C=NC=N1
##########            Long Name:   NO_LONG_NAME
##########          FlexRecCode: 1
##########               Number:                 6461
##########   Ligand Source File: /nfs/db/export/3D/DF/ADRO/DFADRO.xant.db2.gz
##########                 Rank:                    1
##########               Setnum:                   13
##########             Matchnum:                    1
##########                Cloud:                    1
##########        Electrostatic:           -37.160088
##########                 Gist:             0.000000
##########        Van der Waals:           -31.761272
##########  Ligand Polar Desolv:            12.276413
########## Ligand Apolar Desolv:            -6.853736
##########      Internal Energy:             0.000000
##########      Receptor Energy:             0.000000
########## Receptor Desolvation:             0.000000
########## Receptor Hydrophobic:             0.000000
##########         Total Energy:           -63.498680
##########        Ligand Charge:             1.000000
##########            Arbitrary:    +999.9990
##########        Ligand Energy:             0.000000

@<TRIPOS>MOLECULE
 ZINC000172626725      none
   49    51     0     0     0



@<TRIPOS>ATOM
      1 C1        -19.1094    20.8803   -23.4601 C.3        1  LIG1  -0.1500
      2 C2        -18.2082    20.4831   -22.2891 C.3        1  LIG1  -0.1000
      3 C3        -17.6691    21.7438   -21.6101 C.3        1  LIG1  -0.1600
      4 C4        -19.0151    19.6651   -21.2791 C.3        1  LIG1  -0.1300
      5 C5        -19.5541    18.4045   -21.9582 C.3        1  LIG1   0.0900
      6 N1        -20.3268    17.6211   -20.9909 N.pl3      1  LIG1  -0.4400
      7 C6        -21.6652    17.7409   -20.7600 C.2        1  LIG1   0.0300
      8 C7        -22.0090    16.8546   -19.8036 C.2        1  LIG1  -0.2000
      9 C8        -20.8401    16.1623   -19.4304 C.2        1  LIG1  -0.1400
     10 C9        -19.8276    16.6478   -20.1771 C.2        1  LIG1  -0.0800
     11 C10       -18.3903    16.1993   -20.1153 C.3        1  LIG1   0.0800
     12 N2        -17.9770    16.0716   -18.7114 N.4        1  LIG1  -0.5000
     13 H1        -18.0709    16.9643   -18.2506 H          1  LIG1   0.4100
     14 H2        -18.5618    15.3915   -18.2492 H          1  LIG1   0.4300
     15 C11       -16.5759    15.6342   -18.6512 C.3        1  LIG1   0.0600
     16 C12       -16.1520    15.5032   -17.2110 C.ar       1  LIG1  -0.2000
     17 C13       -16.3050    14.3016   -16.5412 C.ar       1  LIG1  -0.0200
     18 C14       -15.9008    14.2265   -15.2156 C.ar       1  LIG1  -0.1700
     19 C15       -15.3623    15.3445   -14.6090 C.ar       1  LIG1   0.1700
     20 N3        -15.2289    16.4761   -15.2732 N.ar       1  LIG1  -0.4900
     21 C16       -15.5970    16.5854   -16.5393 C.ar       1  LIG1   0.3900
     22 N4        -15.4371    17.8054   -17.2042 N.pl3      1  LIG1  -0.3500
     23 C17       -14.9135    18.9396   -16.6976 C.2        1  LIG1   0.3300
     24 N5        -14.9407    19.8517   -17.6350 N.2        1  LIG1  -0.5200
     25 C18       -15.4706    19.3423   -18.7469 C.2        1  LIG1   0.2600
     26 N6        -15.7843    18.0912   -18.5347 N.2        1  LIG1  -0.3900
     27 H3        -19.4935    19.9823   -23.9439 H          1  LIG1   0.0700
     28 H4        -19.9423    21.4785   -23.0908 H          1  LIG1   0.0500
     29 H5        -18.5344    21.4630   -24.1798 H          1  LIG1   0.0600
     30 H6        -17.3751    19.8850   -22.6584 H          1  LIG1   0.0700
     31 H7        -17.0271    21.4609   -20.7759 H          1  LIG1   0.0700
     32 H8        -17.0942    22.3266   -22.3298 H          1  LIG1   0.0600
     33 H9        -18.5021    22.3420   -21.2409 H          1  LIG1   0.0600
     34 H10       -18.3730    19.3822   -20.4449 H          1  LIG1   0.0900
     35 H11       -19.8481    20.2632   -20.9096 H          1  LIG1   0.0400
     36 H12       -20.1962    18.6874   -22.7922 H          1  LIG1   0.0900
     37 H13       -18.7212    17.8063   -22.3275 H          1  LIG1   0.1100
     38 H14       -22.3345    18.4275   -21.2570 H          1  LIG1   0.1700
     39 H15       -22.9986    16.7033   -19.3982 H          1  LIG1   0.1500
     40 H16       -20.7689    15.3827   -18.6864 H          1  LIG1   0.1500
     41 H17       -18.2888    15.2349   -20.6130 H          1  LIG1   0.1300
     42 H18       -17.7586    16.9340   -20.6145 H          1  LIG1   0.1500
     43 H19       -16.4745    14.6699   -19.1490 H          1  LIG1   0.1400
     44 H20       -15.9442    16.3691   -19.1504 H          1  LIG1   0.1400
     45 H21       -16.7295    13.4421   -17.0388 H          1  LIG1   0.1600
     46 H22       -16.0067    13.3040   -14.6641 H          1  LIG1   0.1600
     47 H23       -15.0465    15.2913   -13.5775 H          1  LIG1   0.1900
     48 H24       -14.5376    19.0721   -15.6939 H          1  LIG1   0.2400
     49 H25       -15.6133    19.8759   -19.6749 H          1  LIG1   0.2400
@<TRIPOS>BOND
     1    1    2 1
     2    1   27 1
     3    1   28 1
     4    1   29 1
     5    2    3 1
     6    2    4 1
     7    2   30 1
     8    3   31 1
     9    3   32 1
    10    3   33 1
    11    4    5 1
    12    4   34 1
    13    4   35 1
    14    5    6 1
    15    5   36 1
    16    5   37 1
    17    6   10 1
    18    6    7 1
    19    7    8 2
    20    7   38 1
    21    8    9 1
    22    8   39 1
    23    9   10 2
    24    9   40 1
    25   10   11 1
    26   11   12 1
    27   11   41 1
    28   11   42 1
    29   12   13 1
    30   12   14 1
    31   12   15 1
    32   15   16 1
    33   15   43 1
    34   15   44 1
    35   16   21 ar
    36   16   17 ar
    37   17   18 ar
    38   17   45 1
    39   18   19 ar
    40   18   46 1
    41   19   20 ar
    42   19   47 1
    43   20   21 ar
    44   21   22 1
    45   22   26 1
    46   22   23 1
    47   23   24 2
    48   23   48 1
    49   24   25 1
    50   25   26 2
    51   25   49 1
##########                 Name:     ZINC000178781513
##########          Protonation:                 none
##########               SMILES:   C[C@@H](C(=O)NC1=C2C=CC=CC2=CC=C1)[N@@H+](C)C[C@@H]1CCOC1
##########            Long Name:   NO_LONG_NAME
##########          FlexRecCode: 1
##########               Number:                12647
##########   Ligand Source File: /nfs/db/export/3D/DG/ADMO/DGADMO.xbao.db2.gz
##########                 Rank:                    1
##########               Setnum:                   42
##########             Matchnum:                    1
##########                Cloud:                    1
##########        Electrostatic:           -39.003162
##########                 Gist:             0.000000
##########        Van der Waals:           -32.903347
##########  Ligand Polar Desolv:            14.406608
########## Ligand Apolar Desolv:            -5.103343
##########      Internal Energy:             0.000000
##########      Receptor Energy:             0.000000
########## Receptor Desolvation:             0.000000
########## Receptor Hydrophobic:             0.000000
##########         Total Energy:           -62.603245
##########        Ligand Charge:             1.000000
##########            Arbitrary:    +999.9990
##########        Ligand Energy:             0.000000

@<TRIPOS>MOLECULE
 ZINC000178781513      none
   48    50     0     0     0



@<TRIPOS>ATOM
      1 C1        -16.3832    16.3227   -19.9517 C.3        1  LIG1  -0.1800
      2 C2        -17.1059    15.8840   -18.6764 C.3        1  LIG1   0.0100
      3 H1        -17.4507    14.8561   -18.7895 H          1  LIG1   0.1600
      4 C3        -16.1589    15.9705   -17.5074 C.2        1  LIG1   0.5000
      5 O1        -15.2705    16.7963   -17.5064 O.2        1  LIG1  -0.5100
      6 N1        -16.2991    15.1301   -16.4629 N.am       1  LIG1  -0.6400
      7 C4        -15.4217    15.2102   -15.3799 C.ar       1  LIG1   0.1200
      8 C5        -15.1080    14.0562   -14.6312 C.ar       1  LIG1  -0.0500
      9 C6        -15.6634    12.8073   -14.9508 C.ar       1  LIG1  -0.1300
     10 C7        -15.3379    11.7145   -14.2067 C.ar       1  LIG1  -0.1000
     11 C8        -14.4600    11.8165   -13.1294 C.ar       1  LIG1  -0.1100
     12 C9        -13.9025    13.0110   -12.7906 C.ar       1  LIG1  -0.0900
     13 C10       -14.2149    14.1609   -13.5364 C.ar       1  LIG1  -0.0400
     14 C11       -13.6576    15.4103   -13.2155 C.ar       1  LIG1  -0.1000
     15 C12       -13.9776    16.5076   -13.9555 C.ar       1  LIG1  -0.1100
     16 C13       -14.8499    16.4162   -15.0360 C.ar       1  LIG1  -0.1000
     17 N2        -18.2584    16.7637   -18.4393 N.4        1  LIG1  -0.3700
     18 H2        -18.7348    16.4742   -17.5983 H          1  LIG1   0.4300
     19 C14       -17.7937    18.1490   -18.2869 C.3        1  LIG1  -0.0700
     20 C15       -19.1814    16.6794   -19.5790 C.3        1  LIG1  -0.0100
     21 C16       -20.5667    17.1670   -19.1501 C.3        1  LIG1  -0.1500
     22 H3        -20.4793    18.0358   -18.4978 H          1  LIG1   0.1100
     23 C17       -21.3446    16.0324   -18.4402 C.3        1  LIG1  -0.1400
     24 C18       -22.7752    16.2146   -19.0084 C.3        1  LIG1   0.0400
     25 O2        -22.5460    16.5974   -20.3815 O.3        1  LIG1  -0.3700
     26 C19       -21.4260    17.5033   -20.3843 C.3        1  LIG1   0.0300
     27 H4        -16.0385    17.3506   -19.8386 H          1  LIG1   0.0900
     28 H5        -15.5283    15.6701   -20.1276 H          1  LIG1   0.1100
     29 H6        -17.0683    16.2602   -20.7973 H          1  LIG1   0.1000
     30 H7        -17.0095    14.4696   -16.4638 H          1  LIG1   0.4200
     31 H8        -16.3458    12.7137   -15.7828 H          1  LIG1   0.1200
     32 H9        -15.7666    10.7549   -14.4548 H          1  LIG1   0.1300
     33 H10       -14.2186    10.9346   -12.5545 H          1  LIG1   0.1300
     34 H11       -13.2240    13.0751   -11.9529 H          1  LIG1   0.1400
     35 H12       -12.9764    15.5002   -12.3824 H          1  LIG1   0.1400
     36 H13       -13.5447    17.4641   -13.7019 H          1  LIG1   0.1300
     37 H14       -15.0875    17.3017   -15.6068 H          1  LIG1   0.1400
     38 H15       -18.6487    18.8016   -18.1110 H          1  LIG1   0.1300
     39 H16       -17.1087    18.2114   -17.4413 H          1  LIG1   0.1400
     40 H17       -17.2790    18.4615   -19.1954 H          1  LIG1   0.1300
     41 H18       -18.8122    17.3036   -20.3925 H          1  LIG1   0.1300
     42 H19       -19.2485    15.6450   -19.9163 H          1  LIG1   0.1400
     43 H20       -20.9408    15.0564   -18.7090 H          1  LIG1   0.0900
     44 H21       -21.3350    16.1715   -17.3590 H          1  LIG1   0.1000
     45 H22       -23.3302    15.2778   -18.9586 H          1  LIG1   0.1100
     46 H23       -23.3033    17.0036   -18.4731 H          1  LIG1   0.0700
     47 H24       -21.7814    18.5320   -20.3231 H          1  LIG1   0.0800
     48 H25       -20.8397    17.3651   -21.2928 H          1  LIG1   0.0900
@<TRIPOS>BOND
     1    1    2 1
     2    1   27 1
     3    1   28 1
     4    1   29 1
     5    2    3 1
     6    2    4 1
     7    2   17 1
     8    4    5 2
     9    4    6 am
    10    6    7 1
    11    6   30 1
    12    7   16 ar
    13    7    8 ar
    14    8   13 ar
    15    8    9 ar
    16    9   10 ar
    17    9   31 1
    18   10   11 ar
    19   10   32 1
    20   11   12 ar
    21   11   33 1
    22   12   13 ar
    23   12   34 1
    24   13   14 ar
    25   14   15 ar
    26   14   35 1
    27   15   16 ar
    28   15   36 1
    29   16   37 1
    30   17   18 1
    31   17   19 1
    32   17   20 1
    33   19   38 1
    34   19   39 1
    35   19   40 1
    36   20   21 1
    37   20   41 1
    38   20   42 1
    39   21   22 1
    40   21   26 1
    41   21   23 1
    42   23   24 1
    43   23   43 1
    44   23   44 1
    45   24   25 1
    46   24   45 1
    47   24   46 1
    48   25   26 1
    49   26   47 1
    50   26   48 1
##########                 Name:     ZINC000352209769
##########          Protonation:                 none
##########               SMILES:   CC[N@@H+](C[C@@H](C)O)[C@H](C)C(=O)NC1=CC=CC(C(F)(F)F)=C1
##########            Long Name:   NO_LONG_NAME
##########          FlexRecCode: 1
##########               Number:                  289
##########   Ligand Source File: /nfs/db/export/3D/DF/ADMO/DFADMO.xdd.db2.gz
##########                 Rank:                    1
##########               Setnum:                   95
##########             Matchnum:                    1
##########                Cloud:                    1
##########        Electrostatic:           -49.128532
##########                 Gist:             0.000000
##########        Van der Waals:           -27.061701
##########  Ligand Polar Desolv:            14.272629
########## Ligand Apolar Desolv:            -3.160527
##########      Internal Energy:             0.000000
##########      Receptor Energy:             0.000000
########## Receptor Desolvation:             0.000000
########## Receptor Hydrophobic:             0.000000
##########         Total Energy:           -65.078133
##########        Ligand Charge:             1.000000
##########            Arbitrary:    +999.9990
##########        Ligand Energy:             0.000000

@<TRIPOS>MOLECULE
 ZINC000352209769      none
   44    44     0     0     0



@<TRIPOS>ATOM
      1 C1        -16.9054    18.6870   -16.9036 C.3        1  LIG1  -0.1900
      2 C2        -17.7174    17.4894   -16.4060 C.3        1  LIG1  -0.0200
      3 N1        -17.8782    16.5196   -17.4974 N.4        1  LIG1  -0.3700
      4 H1        -18.4138    15.7298   -17.1693 H          1  LIG1   0.4400
      5 C3        -18.5819    17.1564   -18.6187 C.3        1  LIG1  -0.0100
      6 C4        -19.9592    17.6324   -18.1522 C.3        1  LIG1   0.0800
      7 H2        -19.8556    18.5773   -17.6189 H          1  LIG1   0.0800
      8 C5        -20.8690    17.8291   -19.3665 C.3        1  LIG1  -0.1900
      9 O1        -20.5315    16.6543   -17.2818 O.3        1  LIG1  -0.5700
     10 C6        -16.5560    16.0625   -17.9453 C.3        1  LIG1   0.0000
     11 H3        -15.9776    16.9157   -18.2996 H          1  LIG1   0.1600
     12 C7        -16.7235    15.0523   -19.0821 C.3        1  LIG1  -0.1800
     13 C8        -15.8341    15.4090   -16.7951 C.2        1  LIG1   0.5100
     14 O2        -14.7745    15.8572   -16.4110 O.2        1  LIG1  -0.5000
     15 N2        -16.3660    14.3268   -16.1933 N.am       1  LIG1  -0.6400
     16 C9        -15.6958    13.7200   -15.1253 C.ar       1  LIG1   0.1200
     17 C10       -15.8291    12.3557   -14.9051 C.ar       1  LIG1  -0.1000
     18 C11       -15.1662    11.7597   -13.8498 C.ar       1  LIG1  -0.0900
     19 C12       -14.3709    12.5205   -13.0130 C.ar       1  LIG1  -0.0700
     20 C13       -14.2363    13.8799   -13.2294 C.ar       1  LIG1  -0.1600
     21 C14       -13.3684    14.7054   -12.3147 C.3        1  LIG1   0.5100
     22 F1        -12.8102    13.8808   -11.3321 F          1  LIG1  -0.1700
     23 F2        -12.3452    15.3041   -13.0577 F          1  LIG1  -0.1700
     24 F3        -14.1443    15.6975   -11.7056 F          1  LIG1  -0.1700
     25 C15       -14.8911    14.4805   -14.2864 C.ar       1  LIG1  -0.0700
     26 H4        -16.7860    19.4067   -16.0937 H          1  LIG1   0.1100
     27 H5        -15.9243    18.3478   -17.2360 H          1  LIG1   0.0800
     28 H6        -17.4275    19.1596   -17.7355 H          1  LIG1   0.0800
     29 H7        -17.1953    17.0169   -15.5741 H          1  LIG1   0.1400
     30 H8        -18.6985    17.8286   -16.0737 H          1  LIG1   0.1400
     31 H9        -18.0036    18.0096   -18.9732 H          1  LIG1   0.1500
     32 H10       -18.7014    16.4366   -19.4286 H          1  LIG1   0.1400
     33 H11       -21.8502    18.1682   -19.0341 H          1  LIG1   0.0800
     34 H12       -20.4325    18.5751   -20.0306 H          1  LIG1   0.0800
     35 H13       -20.9727    16.8841   -19.8998 H          1  LIG1   0.0800
     36 H14       -20.6530    15.7866   -17.6909 H          1  LIG1   0.4100
     37 H15       -15.7424    14.7132   -19.4145 H          1  LIG1   0.0900
     38 H16       -17.3021    14.1992   -18.7278 H          1  LIG1   0.1000
     39 H17       -17.2457    15.5249   -19.9141 H          1  LIG1   0.1100
     40 H18       -17.2133    13.9684   -16.5005 H          1  LIG1   0.4200
     41 H19       -16.4508    11.7610   -15.5579 H          1  LIG1   0.1400
     42 H20       -15.2696    10.6986   -13.6781 H          1  LIG1   0.1500
     43 H21       -13.8539    12.0523   -12.1884 H          1  LIG1   0.1500
     44 H22       -14.7857    15.5420   -14.4548 H          1  LIG1   0.1400
@<TRIPOS>BOND
     1    1    2 1
     2    1   26 1
     3    1   27 1
     4    1   28 1
     5    2    3 1
     6    2   29 1
     7    2   30 1
     8    3    4 1
     9    3    5 1
    10    3   10 1
    11    5    6 1
    12    5   31 1
    13    5   32 1
    14    6    7 1
    15    6    8 1
    16    6    9 1
    17    8   33 1
    18    8   34 1
    19    8   35 1
    20    9   36 1
    21   10   11 1
    22   10   12 1
    23   10   13 1
    24   12   37 1
    25   12   38 1
    26   12   39 1
    27   13   14 2
    28   13   15 am
    29   15   16 1
    30   15   40 1
    31   16   25 ar
    32   16   17 ar
    33   17   18 ar
    34   17   41 1
    35   18   19 ar
    36   18   42 1
    37   19   20 ar
    38   19   43 1
    39   20   21 1
    40   20   25 ar
    41   21   22 1
    42   21   23 1
    43   21   24 1
    44   25   44 1
##########                 Name:     ZINC000603135367
##########          Protonation:                 none
##########               SMILES:   C[C@@H]1C[N@@H+](CC2=CC=CC=C2)C[C@@H]1NC(=O)NC1=CC=NC(C#N)=C1
##########            Long Name:   NO_LONG_NAME
##########          FlexRecCode: 1
##########               Number:                 9944
##########   Ligand Source File: /nfs/db/export/3D/EF/EDMO/EFEDMO.xbd.db2.gz
##########                 Rank:                    1
##########               Setnum:                  106
##########             Matchnum:                    1
##########                Cloud:                    1
##########        Electrostatic:           -42.118416
##########                 Gist:             0.000000
##########        Van der Waals:           -37.693089
##########  Ligand Polar Desolv:            18.144777
########## Ligand Apolar Desolv:            -4.583229
##########      Internal Energy:             0.000000
##########      Receptor Energy:             0.000000
########## Receptor Desolvation:             0.000000
########## Receptor Hydrophobic:             0.000000
##########         Total Energy:           -66.249962
##########        Ligand Charge:             1.000000
##########            Arbitrary:    +999.9990
##########        Ligand Energy:             0.000000

@<TRIPOS>MOLECULE
 ZINC000603135367      none
   47    49     0     0     0



@<TRIPOS>ATOM
      1 C1        -17.7334    17.2697   -15.6691 C.3        1  LIG1  -0.1600
      2 C2        -17.2615    17.6294   -17.0794 C.3        1  LIG1  -0.1100
      3 H1        -16.6823    18.5524   -17.0599 H          1  LIG1   0.1300
      4 C3        -18.4678    17.7753   -18.0254 C.3        1  LIG1  -0.0100
      5 N1        -18.3248    16.7413   -19.0733 N.4        1  LIG1  -0.3900
      6 H2        -18.8346    15.9101   -18.8138 H          1  LIG1   0.4200
      7 C4        -18.8124    17.2539   -20.3607 C.3        1  LIG1   0.0500
      8 C5        -20.2660    17.6300   -20.2337 C.ar       1  LIG1  -0.1600
      9 C6        -20.7881    18.6457   -21.0128 C.ar       1  LIG1  -0.0900
     10 C7        -22.1215    18.9907   -20.8962 C.ar       1  LIG1  -0.1100
     11 C8        -22.9333    18.3198   -20.0007 C.ar       1  LIG1  -0.0800
     12 C9        -22.4115    17.3037   -19.2220 C.ar       1  LIG1  -0.1100
     13 C10       -21.0791    16.9557   -19.3418 C.ar       1  LIG1  -0.1000
     14 C11       -16.8715    16.4460   -19.1552 C.3        1  LIG1  -0.0200
     15 C12       -16.4171    16.4784   -17.6726 C.3        1  LIG1   0.1500
     16 H3        -15.3525    16.7009   -17.6002 H          1  LIG1   0.1500
     17 N2        -16.7260    15.2098   -17.0079 N.am       1  LIG1  -0.7400
     18 C13       -15.9870    14.8021   -15.9572 C.2        1  LIG1   0.7100
     19 O1        -15.0641    15.4873   -15.5607 O.2        1  LIG1  -0.5500
     20 N3        -16.2711    13.6352   -15.3457 N.am       1  LIG1  -0.6800
     21 C14       -15.5059    13.2130   -14.2576 C.ar       1  LIG1   0.2000
     22 C15       -15.3185    11.8562   -14.0001 C.ar       1  LIG1  -0.1500
     23 C16       -14.5542    11.4730   -12.9139 C.ar       1  LIG1   0.1400
     24 N4        -14.0032    12.3695   -12.1225 N.ar       1  LIG1  -0.4600
     25 C17       -14.1549    13.6735   -12.3293 C.ar       1  LIG1   0.2200
     26 C18       -13.5352    14.6098   -11.4404 C.1        1  LIG1   0.2600
     27 N5        -13.0435    15.3525   -10.7354 N.1        1  LIG1  -0.3700
     28 C19       -14.9059    14.1374   -13.4055 C.ar       1  LIG1  -0.1500
     29 H4        -18.3107    16.3457   -15.7037 H          1  LIG1   0.0800
     30 H5        -16.8682    17.1335   -15.0202 H          1  LIG1   0.0800
     31 H6        -18.3575    18.0736   -15.2787 H          1  LIG1   0.0600
     32 H7        -19.3942    17.6185   -17.4730 H          1  LIG1   0.1400
     33 H8        -18.4661    18.7665   -18.4792 H          1  LIG1   0.1400
     34 H9        -18.2332    18.1325   -20.6449 H          1  LIG1   0.1400
     35 H10       -18.7018    16.4835   -21.1238 H          1  LIG1   0.1400
     36 H11       -20.1538    19.1698   -21.7125 H          1  LIG1   0.1300
     37 H12       -22.5291    19.7844   -21.5045 H          1  LIG1   0.1400
     38 H13       -23.9749    18.5899   -19.9090 H          1  LIG1   0.1400
     39 H14       -23.0456    16.7798   -18.5222 H          1  LIG1   0.1400
     40 H15       -20.6714    16.1618   -18.7336 H          1  LIG1   0.1300
     41 H16       -16.7031    15.4599   -19.5881 H          1  LIG1   0.1400
     42 H17       -16.3548    17.2136   -19.7314 H          1  LIG1   0.1500
     43 H18       -17.4623    14.6634   -17.3242 H          1  LIG1   0.4000
     44 H19       -17.0075    13.0886   -15.6620 H          1  LIG1   0.4100
     45 H20       -15.7659    11.1120   -14.6423 H          1  LIG1   0.1600
     46 H21       -14.4071    10.4225   -12.7110 H          1  LIG1   0.1800
     47 H22       -15.0284    15.1974   -13.5724 H          1  LIG1   0.1500
@<TRIPOS>BOND
     1    1    2 1
     2    1   29 1
     3    1   30 1
     4    1   31 1
     5    2    3 1
     6    2   15 1
     7    2    4 1
     8    4    5 1
     9    4   32 1
    10    4   33 1
    11    5    6 1
    12    5    7 1
    13    5   14 1
    14    7    8 1
    15    7   34 1
    16    7   35 1
    17    8   13 ar
    18    8    9 ar
    19    9   10 ar
    20    9   36 1
    21   10   11 ar
    22   10   37 1
    23   11   12 ar
    24   11   38 1
    25   12   13 ar
    26   12   39 1
    27   13   40 1
    28   14   15 1
    29   14   41 1
    30   14   42 1
    31   15   16 1
    32   15   17 1
    33   17   18 am
    34   17   43 1
    35   18   19 2
    36   18   20 am
    37   20   21 1
    38   20   44 1
    39   21   28 ar
    40   21   22 ar
    41   22   23 ar
    42   22   45 1
    43   23   24 ar
    44   23   46 1
    45   24   25 ar
    46   25   26 1
    47   25   28 ar
    48   26   27 3
    49   28   47 1
##########                 Name:     ZINC000370619526
##########          Protonation:                 none
##########               SMILES:   C[C@@H](CCC1=CC=CC=C1[N+](=O)[O-])[NH2+]CC1(O)CC2=CC=CC=C2C1
##########            Long Name:   NO_LONG_NAME
##########          FlexRecCode: 1
##########               Number:                10908
##########   Ligand Source File: /nfs/db/export/3D/EG/BDRO/EGBDRO.xbk.db2.gz
##########                 Rank:                    1
##########               Setnum:                   96
##########             Matchnum:                    1
##########                Cloud:                    1
##########        Electrostatic:           -41.061150
##########                 Gist:             0.000000
##########        Van der Waals:           -31.381119
##########  Ligand Polar Desolv:            13.911283
########## Ligand Apolar Desolv:            -5.565591
##########      Internal Energy:             0.000000
##########      Receptor Energy:             0.000000
########## Receptor Desolvation:             0.000000
########## Receptor Hydrophobic:             0.000000
##########         Total Energy:           -64.096573
##########        Ligand Charge:             1.000000
##########            Arbitrary:    +999.9990
##########        Ligand Energy:             0.000000

@<TRIPOS>MOLECULE
 ZINC000370619526      none
   50    52     0     0     0



@<TRIPOS>ATOM
      1 C1        -18.2731    17.6742   -15.6674 C.3        1  LIG1  -0.1900
      2 C2        -17.0607    16.8652   -16.1328 C.3        1  LIG1   0.0300
      3 H1        -16.1924    17.5201   -16.2038 H          1  LIG1   0.1400
      4 C3        -16.7763    15.7481   -15.1266 C.3        1  LIG1  -0.1400
      5 C4        -15.5639    14.9391   -15.5920 C.3        1  LIG1  -0.1100
      6 C5        -15.2837    13.8389   -14.6009 C.ar       1  LIG1  -0.0300
      7 C6        -15.8743    12.5993   -14.7591 C.ar       1  LIG1  -0.1100
      8 C7        -15.6172    11.5901   -13.8499 C.ar       1  LIG1  -0.0600
      9 C8        -14.7694    11.8205   -12.7830 C.ar       1  LIG1  -0.1100
     10 C9        -14.1779    13.0602   -12.6253 C.ar       1  LIG1  -0.0500
     11 C10       -14.4316    14.0679   -13.5365 C.ar       1  LIG1  -0.0500
     12 N1        -13.7984    15.3951   -13.3677 N.pl3      1  LIG1   0.0400
     13 O1        -14.0281    16.2855   -14.1663 O.2        1  LIG1  -0.1300
     14 O2        -13.0477    15.5969   -12.4299 O.2        1  LIG1  -0.2100
     15 N2        -17.3402    16.2780   -17.4501 N.4        1  LIG1  -0.5000
     16 H2        -16.7146    15.5033   -17.6127 H          1  LIG1   0.4400
     17 H3        -18.2944    15.9510   -17.4769 H          1  LIG1   0.4300
     18 C11       -17.1415    17.2949   -18.4915 C.3        1  LIG1   0.0100
     19 C12       -17.4326    16.6834   -19.8635 C.3        1  LIG1   0.1100
     20 O3        -16.6140    15.5340   -20.0888 O.3        1  LIG1  -0.5600
     21 C13       -18.9292    16.3319   -20.0012 C.3        1  LIG1  -0.1100
     22 C14       -19.5686    17.5572   -20.6184 C.ar       1  LIG1  -0.1100
     23 C15       -20.8976    17.9400   -20.6820 C.ar       1  LIG1  -0.1000
     24 C16       -21.2523    19.1199   -21.3070 C.ar       1  LIG1  -0.1100
     25 C17       -20.2777    19.9216   -21.8707 C.ar       1  LIG1  -0.1100
     26 C18       -18.9512    19.5413   -21.8084 C.ar       1  LIG1  -0.1000
     27 C19       -18.5939    18.3591   -21.1826 C.ar       1  LIG1  -0.1100
     28 C20       -17.2330    17.7273   -20.9828 C.3        1  LIG1  -0.1000
     29 H4        -19.1414    17.0193   -15.5964 H          1  LIG1   0.0800
     30 H5        -18.0656    18.1099   -14.6901 H          1  LIG1   0.1100
     31 H6        -18.4758    18.4699   -16.3843 H          1  LIG1   0.0800
     32 H7        -16.5690    16.1837   -14.1492 H          1  LIG1   0.1100
     33 H8        -17.6447    15.0931   -15.0557 H          1  LIG1   0.0900
     34 H9        -15.7712    14.5035   -16.5694 H          1  LIG1   0.1000
     35 H10       -14.6955    15.5941   -15.6630 H          1  LIG1   0.1000
     36 H11       -16.5368    12.4193   -15.5929 H          1  LIG1   0.1500
     37 H12       -16.0792    10.6217   -13.9731 H          1  LIG1   0.1500
     38 H13       -14.5692    11.0323   -12.0724 H          1  LIG1   0.1500
     39 H14       -13.5157    13.2403   -11.7913 H          1  LIG1   0.1600
     40 H15       -17.8177    18.1318   -18.3159 H          1  LIG1   0.1500
     41 H16       -16.1108    17.6482   -18.4624 H          1  LIG1   0.1400
     42 H17       -16.7415    14.8272   -19.4412 H          1  LIG1   0.4100
     43 H18       -19.0564    15.4690   -20.6549 H          1  LIG1   0.1100
     44 H19       -19.3625    16.1323   -19.0212 H          1  LIG1   0.0700
     45 H20       -21.6598    17.3140   -20.2419 H          1  LIG1   0.1200
     46 H21       -22.2898    19.4156   -21.3551 H          1  LIG1   0.1300
     47 H22       -20.5531    20.8442   -22.3600 H          1  LIG1   0.1300
     48 H23       -18.1902    20.1681   -22.2493 H          1  LIG1   0.1300
     49 H24       -16.5081    18.4801   -20.6731 H          1  LIG1   0.0900
     50 H25       -16.9041    17.2394   -21.9003 H          1  LIG1   0.1000
@<TRIPOS>BOND
     1    1    2 1
     2    1   29 1
     3    1   30 1
     4    1   31 1
     5    2    3 1
     6    2    4 1
     7    2   15 1
     8    4    5 1
     9    4   32 1
    10    4   33 1
    11    5    6 1
    12    5   34 1
    13    5   35 1
    14    6   11 ar
    15    6    7 ar
    16    7    8 ar
    17    7   36 1
    18    8    9 ar
    19    8   37 1
    20    9   10 ar
    21    9   38 1
    22   10   11 ar
    23   10   39 1
    24   11   12 1
    25   12   13 2
    26   12   14 2
    27   15   16 1
    28   15   17 1
    29   15   18 1
    30   18   19 1
    31   18   40 1
    32   18   41 1
    33   19   28 1
    34   19   20 1
    35   19   21 1
    36   20   42 1
    37   21   22 1
    38   21   43 1
    39   21   44 1
    40   22   27 ar
    41   22   23 ar
    42   23   24 ar
    43   23   45 1
    44   24   25 ar
    45   24   46 1
    46   25   26 ar
    47   25   47 1
    48   26   27 ar
    49   26   48 1
    50   27   28 1
    51   28   49 1
    52   28   50 1
##########                 Name:     ZINC000407269565
##########          Protonation:                 none
##########               SMILES:   O=C(NC1=CC=CC2=C1CCCC2)[C@@H]1CC[C@H](C2CC2)[NH2+]1
##########            Long Name:   NO_LONG_NAME
##########          FlexRecCode: 1
##########               Number:                10043
##########   Ligand Source File: /nfs/db/export/3D/CG/ADRO/CGADRO.xbkj.db2.gz
##########                 Rank:                    1
##########               Setnum:                   21
##########             Matchnum:                    1
##########                Cloud:                    1
##########        Electrostatic:           -46.307510
##########                 Gist:             0.000000
##########        Van der Waals:           -25.760475
##########  Ligand Polar Desolv:            15.113348
########## Ligand Apolar Desolv:            -5.533444
##########      Internal Energy:             0.000000
##########      Receptor Energy:             0.000000
########## Receptor Desolvation:             0.000000
########## Receptor Hydrophobic:             0.000000
##########         Total Energy:           -62.488083
##########        Ligand Charge:             1.000000
##########            Arbitrary:    +999.9990
##########        Ligand Energy:             0.000000

@<TRIPOS>MOLECULE
 ZINC000407269565      none
   46    49     0     0     0



@<TRIPOS>ATOM
      1 O1        -15.3330    17.0086   -17.9294 O.2        1  LIG1  -0.5100
      2 C1        -16.1978    16.1642   -17.8292 C.2        1  LIG1   0.5100
      3 N1        -16.2603    15.3911   -16.7271 N.am       1  LIG1  -0.6400
      4 C2        -15.3239    15.5587   -15.7010 C.ar       1  LIG1   0.1200
      5 C3        -14.7692    16.8077   -15.4719 C.ar       1  LIG1  -0.1200
      6 C4        -13.8441    16.9704   -14.4590 C.ar       1  LIG1  -0.1000
      7 C5        -13.4765    15.8893   -13.6846 C.ar       1  LIG1  -0.1200
      8 C6        -14.0289    14.6342   -13.9106 C.ar       1  LIG1  -0.0500
      9 C7        -14.9584    14.4682   -14.9107 C.ar       1  LIG1  -0.0900
     10 C8        -15.6098    13.1415   -15.2010 C.3        1  LIG1  -0.0800
     11 C9        -14.8058    12.0009   -14.5805 C.3        1  LIG1  -0.1200
     12 C10       -14.5542    12.3331   -13.1050 C.3        1  LIG1  -0.1200
     13 C11       -13.5738    13.4995   -13.0304 C.3        1  LIG1  -0.0900
     14 C12       -17.2063    15.9838   -18.9345 C.3        1  LIG1   0.0100
     15 H1        -17.1549    14.9731   -19.3391 H          1  LIG1   0.1700
     16 C13       -16.9853    17.0328   -20.0531 C.3        1  LIG1  -0.1400
     17 C14       -18.3775    17.1270   -20.7186 C.3        1  LIG1  -0.1300
     18 C15       -19.3674    16.6191   -19.6539 C.3        1  LIG1   0.0600
     19 H2        -19.8794    15.7282   -20.0179 H          1  LIG1   0.1400
     20 C16       -20.3890    17.7106   -19.3290 C.3        1  LIG1  -0.2100
     21 C17       -21.8672    17.3159   -19.3237 C.3        1  LIG1  -0.1400
     22 C18       -21.1459    17.5980   -18.0042 C.3        1  LIG1  -0.1800
     23 N2        -18.5771    16.2843   -18.4474 N.4        1  LIG1  -0.5000
     24 H3        -18.9712    15.4784   -17.9858 H          1  LIG1   0.4400
     25 H4        -18.5552    17.0714   -17.8164 H          1  LIG1   0.4400
     26 H5        -16.9544    14.7185   -16.6452 H          1  LIG1   0.4200
     27 H6        -15.0586    17.6500   -16.0828 H          1  LIG1   0.1400
     28 H7        -13.4094    17.9415   -14.2738 H          1  LIG1   0.1300
     29 H8        -12.7516    16.0196   -12.8947 H          1  LIG1   0.1300
     30 H9        -16.6178    13.1378   -14.7864 H          1  LIG1   0.0800
     31 H10       -15.6651    12.9968   -16.2800 H          1  LIG1   0.0700
     32 H11       -15.3692    11.0708   -14.6565 H          1  LIG1   0.0700
     33 H12       -13.8537    11.8973   -15.1009 H          1  LIG1   0.0700
     34 H13       -15.4923    12.6162   -12.6274 H          1  LIG1   0.0700
     35 H14       -14.1321    11.4644   -12.5998 H          1  LIG1   0.0700
     36 H15       -12.5918    13.1654   -13.3649 H          1  LIG1   0.0800
     37 H16       -13.5034    13.8444   -11.9988 H          1  LIG1   0.0800
     38 H17       -16.6948    17.9937   -19.6287 H          1  LIG1   0.1100
     39 H18       -16.2393    16.6838   -20.7670 H          1  LIG1   0.1300
     40 H19       -18.6020    18.1608   -20.9814 H          1  LIG1   0.1100
     41 H20       -18.4169    16.4934   -21.6047 H          1  LIG1   0.1100
     42 H21       -20.1361    18.7109   -19.6807 H          1  LIG1   0.1300
     43 H22       -22.5871    18.0565   -19.6722 H          1  LIG1   0.1200
     44 H23       -22.1119    16.2786   -19.5518 H          1  LIG1   0.1100
     45 H24       -20.9162    16.7463   -17.3641 H          1  LIG1   0.1000
     46 H25       -21.3914    18.5243   -17.4844 H          1  LIG1   0.1200
@<TRIPOS>BOND
     1    1    2 2
     2    2    3 am
     3    2   14 1
     4    3    4 1
     5    3   26 1
     6    4    9 ar
     7    4    5 ar
     8    5    6 ar
     9    5   27 1
    10    6    7 ar
    11    6   28 1
    12    7    8 ar
    13    7   29 1
    14    8   13 1
    15    8    9 ar
    16    9   10 1
    17   10   11 1
    18   10   30 1
    19   10   31 1
    20   11   12 1
    21   11   32 1
    22   11   33 1
    23   12   13 1
    24   12   34 1
    25   12   35 1
    26   13   36 1
    27   13   37 1
    28   14   15 1
    29   14   23 1
    30   14   16 1
    31   16   17 1
    32   16   38 1
    33   16   39 1
    34   17   18 1
    35   17   40 1
    36   17   41 1
    37   18   19 1
    38   18   20 1
    39   18   23 1
    40   20   22 1
    41   20   21 1
    42   20   42 1
    43   21   22 1
    44   21   43 1
    45   21   44 1
    46   22   45 1
    47   22   46 1
    48   23   24 1
    49   23   25 1
##########                 Name:     ZINC000451696477
##########          Protonation:                 none
##########               SMILES:   CC1=CC(NC(=O)[C@H](C)[N@@H+]2CC[C@@H]3C[C@H](O)CC[C@H]3C2)=CC(C)=C1
##########            Long Name:   NO_LONG_NAME
##########          FlexRecCode: 1
##########               Number:                 4672
##########   Ligand Source File: /nfs/db/export/3D/EG/ADRO/EGADRO.xate.db2.gz
##########                 Rank:                    1
##########               Setnum:                   78
##########             Matchnum:                    1
##########                Cloud:                    1
##########        Electrostatic:           -45.408672
##########                 Gist:             0.000000
##########        Van der Waals:           -27.172447
##########  Ligand Polar Desolv:            14.319533
########## Ligand Apolar Desolv:            -4.588829
##########      Internal Energy:             0.000000
##########      Receptor Energy:             0.000000
########## Receptor Desolvation:             0.000000
########## Receptor Hydrophobic:             0.000000
##########         Total Energy:           -62.850410
##########        Ligand Charge:             1.000000
##########            Arbitrary:    +999.9990
##########        Ligand Energy:             0.000000

@<TRIPOS>MOLECULE
 ZINC000451696477      none
   55    57     0     0     0



@<TRIPOS>ATOM
      1 C1        -13.4497    15.3858   -12.1195 C.3        1  LIG1  -0.1200
      2 C2        -14.3206    14.6033   -13.0684 C.ar       1  LIG1  -0.0600
      3 C3        -15.1392    15.2676   -13.9606 C.ar       1  LIG1  -0.1400
      4 C4        -15.9413    14.5457   -14.8347 C.ar       1  LIG1   0.1200
      5 N1        -16.7714    15.2157   -15.7401 N.am       1  LIG1  -0.6400
      6 C5        -16.4137    16.4256   -16.2141 C.2        1  LIG1   0.5100
      7 O1        -15.3723    16.9337   -15.8558 O.2        1  LIG1  -0.5000
      8 C6        -17.3078    17.1472   -17.1892 C.3        1  LIG1   0.0000
      9 H1        -16.8565    18.1024   -17.4577 H          1  LIG1   0.1600
     10 C7        -18.6735    17.3921   -16.5442 C.3        1  LIG1  -0.1800
     11 N2        -17.4806    16.3084   -18.4269 N.4        1  LIG1  -0.3700
     12 H2        -17.9278    15.3866   -18.0919 H          1  LIG1   0.4300
     13 C8        -16.1770    15.8989   -19.0674 C.3        1  LIG1  -0.0100
     14 C9        -15.5546    17.0583   -19.8348 C.3        1  LIG1  -0.1400
     15 C10       -16.5330    17.6378   -20.8620 C.3        1  LIG1  -0.0900
     16 H3        -16.7702    16.8380   -21.6046 H          1  LIG1   0.1000
     17 C11       -15.9151    18.8185   -21.6189 C.3        1  LIG1  -0.1100
     18 C12       -16.8965    19.3992   -22.6381 C.3        1  LIG1   0.1000
     19 H4        -17.0849    18.6547   -23.4249 H          1  LIG1   0.0600
     20 O2        -16.3323    20.5609   -23.2370 O.3        1  LIG1  -0.5700
     21 C13       -18.2240    19.7825   -21.9875 C.3        1  LIG1  -0.1600
     22 C14       -18.8361    18.6181   -21.2128 C.3        1  LIG1  -0.1100
     23 C15       -17.8487    18.0575   -20.1798 C.3        1  LIG1  -0.1100
     24 H5        -17.6200    18.8630   -19.4486 H          1  LIG1   0.1000
     25 C16       -18.4653    16.8819   -19.4202 C.3        1  LIG1  -0.0100
     26 C17       -15.9175    13.1575   -14.8085 C.ar       1  LIG1  -0.1200
     27 C18       -15.0967    12.4992   -13.9139 C.ar       1  LIG1  -0.0600
     28 C19       -15.0698    10.9926   -13.8852 C.3        1  LIG1  -0.1200
     29 C20       -14.2949    13.2209   -13.0487 C.ar       1  LIG1  -0.1200
     30 H6        -13.6042    16.4528   -12.2805 H          1  LIG1   0.0800
     31 H7        -13.7119    15.1317   -11.0925 H          1  LIG1   0.0700
     32 H8        -12.4034    15.1388   -12.2991 H          1  LIG1   0.0700
     33 H9        -15.1557    16.3474   -13.9782 H          1  LIG1   0.1300
     34 H10       -17.6044    14.8096   -16.0267 H          1  LIG1   0.4200
     35 H11       -19.3201    17.9141   -17.2496 H          1  LIG1   0.0900
     36 H12       -19.1249    16.4369   -16.2757 H          1  LIG1   0.1100
     37 H13       -18.5484    17.9996   -15.6479 H          1  LIG1   0.1000
     38 H14       -15.5008    15.5644   -18.2784 H          1  LIG1   0.1300
     39 H15       -16.3773    15.0653   -19.7434 H          1  LIG1   0.1400
     40 H16       -15.2608    17.8506   -19.1296 H          1  LIG1   0.0800
     41 H17       -14.6489    16.7113   -20.3551 H          1  LIG1   0.1200
     42 H18       -15.6308    19.5992   -20.9002 H          1  LIG1   0.0800
     43 H19       -15.0078    18.4801   -22.1377 H          1  LIG1   0.0800
     44 H20       -16.1251    21.2661   -22.6087 H          1  LIG1   0.3900
     45 H21       -18.0604    20.6280   -21.3029 H          1  LIG1   0.0800
     46 H22       -18.9278    20.1098   -22.7673 H          1  LIG1   0.0800
     47 H23       -19.7432    18.9581   -20.6955 H          1  LIG1   0.0800
     48 H24       -19.1156    17.8188   -21.9121 H          1  LIG1   0.0800
     49 H25       -18.7474    16.0938   -20.1189 H          1  LIG1   0.1400
     50 H26       -19.3478    17.2142   -18.8724 H          1  LIG1   0.1400
     51 H27       -16.5404    12.5933   -15.4868 H          1  LIG1   0.1400
     52 H28       -14.3689    10.6562   -13.1211 H          1  LIG1   0.0800
     53 H29       -16.0664    10.6157   -13.6552 H          1  LIG1   0.0700
     54 H30       -14.7547    10.6163   -14.8584 H          1  LIG1   0.0700
     55 H31       -13.6539    12.7037   -12.3501 H          1  LIG1   0.1300
@<TRIPOS>BOND
     1    1    2 1
     2    1   30 1
     3    1   31 1
     4    1   32 1
     5    2   29 ar
     6    2    3 ar
     7    3    4 ar
     8    3   33 1
     9    4    5 1
    10    4   26 ar
    11    5    6 am
    12    5   34 1
    13    6    7 2
    14    6    8 1
    15    8    9 1
    16    8   10 1
    17    8   11 1
    18   10   35 1
    19   10   36 1
    20   10   37 1
    21   11   12 1
    22   11   25 1
    23   11   13 1
    24   13   14 1
    25   13   38 1
    26   13   39 1
    27   14   15 1
    28   14   40 1
    29   14   41 1
    30   15   16 1
    31   15   23 1
    32   15   17 1
    33   17   18 1
    34   17   42 1
    35   17   43 1
    36   18   19 1
    37   18   20 1
    38   18   21 1
    39   20   44 1
    40   21   22 1
    41   21   45 1
    42   21   46 1
    43   22   23 1
    44   22   47 1
    45   22   48 1
    46   23   24 1
    47   23   25 1
    48   25   49 1
    49   25   50 1
    50   26   27 ar
    51   26   51 1
    52   27   28 1
    53   27   29 ar
    54   28   52 1
    55   28   53 1
    56   28   54 1
    57   29   55 1
##########                 Name:     ZINC000544415926
##########          Protonation:                 none
##########               SMILES:   COC[C@H]([NH2+]CC(=O)NC1=C(C)C=C(C)C=C1Cl)C(C)C
##########            Long Name:   NO_LONG_NAME
##########          FlexRecCode: 1
##########               Number:                 5885
##########   Ligand Source File: /nfs/db/export/3D/DG/ADRO/DGADRO.xapl.db2.gz
##########                 Rank:                    1
##########               Setnum:                   70
##########             Matchnum:                    1
##########                Cloud:                    1
##########        Electrostatic:           -42.994732
##########                 Gist:             0.000000
##########        Van der Waals:           -28.101887
##########  Ligand Polar Desolv:            12.928494
########## Ligand Apolar Desolv:            -4.471878
##########      Internal Energy:             0.000000
##########      Receptor Energy:             0.000000
########## Receptor Desolvation:             0.000000
########## Receptor Hydrophobic:             0.000000
##########         Total Energy:           -62.639999
##########        Ligand Charge:             1.000000
##########            Arbitrary:    +999.9990
##########        Ligand Energy:             0.000000

@<TRIPOS>MOLECULE
 ZINC000544415926      none
   47    47     0     0     0



@<TRIPOS>ATOM
      1 C1        -16.8276    17.2544   -21.0177 C.3        1  LIG1   0.0300
      2 O1        -17.8998    17.7224   -20.1972 O.3        1  LIG1  -0.4000
      3 C2        -18.9447    16.7667   -20.0052 C.3        1  LIG1   0.0300
      4 C3        -19.7586    17.1429   -18.7654 C.3        1  LIG1   0.0400
      5 H1        -19.8921    18.2242   -18.7329 H          1  LIG1   0.1500
      6 N1        -19.0459    16.7010   -17.5592 N.4        1  LIG1  -0.4900
      7 H2        -19.5827    16.9491   -16.7416 H          1  LIG1   0.4300
      8 H3        -18.9223    15.7000   -17.5894 H          1  LIG1   0.4400
      9 C4        -17.7320    17.3550   -17.4996 C.3        1  LIG1  -0.0300
     10 C5        -17.0008    16.9016   -16.2623 C.2        1  LIG1   0.4800
     11 O2        -17.4793    17.1050   -15.1665 O.2        1  LIG1  -0.4900
     12 N2        -15.8153    16.2703   -16.3733 N.am       1  LIG1  -0.6400
     13 C6        -15.1362    15.8492   -15.2239 C.ar       1  LIG1   0.1200
     14 C7        -15.3624    14.5806   -14.7079 C.ar       1  LIG1  -0.0800
     15 C8        -16.3397    13.6544   -15.3847 C.3        1  LIG1  -0.1200
     16 C9        -14.6903    14.1676   -13.5737 C.ar       1  LIG1  -0.1000
     17 C10       -13.7930    15.0160   -12.9521 C.ar       1  LIG1  -0.0600
     18 C11       -13.0620    14.5616   -11.7151 C.3        1  LIG1  -0.1200
     19 C12       -13.5644    16.2806   -13.4632 C.ar       1  LIG1  -0.1000
     20 C13       -14.2297    16.6983   -14.6001 C.ar       1  LIG1  -0.0200
     21 Cl1       -13.9421    18.2855   -15.2417 Cl         1  LIG1  -0.0500
     22 C14       -21.1271    16.4617   -18.8276 C.3        1  LIG1  -0.1100
     23 C15       -21.7358    16.4109   -17.4248 C.3        1  LIG1  -0.1800
     24 C16       -22.0497    17.2544   -19.7556 C.3        1  LIG1  -0.1500
     25 H4        -16.0757    18.0375   -21.1146 H          1  LIG1   0.0500
     26 H5        -16.3776    16.3734   -20.5598 H          1  LIG1   0.1000
     27 H6        -17.2115    16.9951   -22.0043 H          1  LIG1   0.0600
     28 H7        -19.5961    16.7602   -20.8792 H          1  LIG1   0.0700
     29 H8        -18.5107    15.7763   -19.8681 H          1  LIG1   0.1000
     30 H9        -17.1522    17.0871   -18.3828 H          1  LIG1   0.1600
     31 H10       -17.8656    18.4363   -17.4669 H          1  LIG1   0.1600
     32 H11       -15.4326    16.1077   -17.2496 H          1  LIG1   0.4200
     33 H12       -16.3836    12.7113   -14.8400 H          1  LIG1   0.0800
     34 H13       -17.3282    14.1141   -15.3955 H          1  LIG1   0.0800
     35 H14       -16.0146    13.4681   -16.4083 H          1  LIG1   0.0600
     36 H15       -14.8664    13.1806   -13.1718 H          1  LIG1   0.1400
     37 H16       -12.4031    15.3580   -11.3692 H          1  LIG1   0.0800
     38 H17       -13.7837    14.3222   -10.9340 H          1  LIG1   0.0700
     39 H18       -12.4706    13.6759   -11.9472 H          1  LIG1   0.0800
     40 H19       -12.8626    16.9410   -12.9755 H          1  LIG1   0.1400
     41 H20       -21.0111    15.4476   -19.2103 H          1  LIG1   0.1100
     42 H21       -22.7108    15.9254   -17.4692 H          1  LIG1   0.0700
     43 H22       -21.0785    15.8460   -16.7638 H          1  LIG1   0.0900
     44 H23       -21.8518    17.4249   -17.0422 H          1  LIG1   0.0600
     45 H24       -23.0247    16.7691   -19.8000 H          1  LIG1   0.0700
     46 H25       -22.1656    18.2685   -19.3730 H          1  LIG1   0.0800
     47 H26       -21.6160    17.2904   -20.7549 H          1  LIG1   0.0700
@<TRIPOS>BOND
     1    1    2 1
     2    1   25 1
     3    1   26 1
     4    1   27 1
     5    2    3 1
     6    3    4 1
     7    3   28 1
     8    3   29 1
     9    4    5 1
    10    4    6 1
    11    4   22 1
    12    6    7 1
    13    6    8 1
    14    6    9 1
    15    9   10 1
    16    9   30 1
    17    9   31 1
    18   10   11 2
    19   10   12 am
    20   12   13 1
    21   12   32 1
    22   13   20 ar
    23   13   14 ar
    24   14   15 1
    25   14   16 ar
    26   15   33 1
    27   15   34 1
    28   15   35 1
    29   16   17 ar
    30   16   36 1
    31   17   18 1
    32   17   19 ar
    33   18   37 1
    34   18   38 1
    35   18   39 1
    36   19   20 ar
    37   19   40 1
    38   20   21 1
    39   22   23 1
    40   22   24 1
    41   22   41 1
    42   23   42 1
    43   23   43 1
    44   23   44 1
    45   24   45 1
    46   24   46 1
    47   24   47 1
##########                 Name:     ZINC000072898431
##########          Protonation:                 none
##########               SMILES:   CCCN1C(=O)NC(=O)C(C(=O)C[N@@H+]2CCC3(C2)CCOCC3)=C1N
##########            Long Name:   NO_LONG_NAME
##########          FlexRecCode: 1
##########               Number:                 9914
##########   Ligand Source File: /nfs/db/export/3D/FC/ADMO/FCADMO.xjq.db2.gz
##########                 Rank:                    1
##########               Setnum:                  128
##########             Matchnum:                    1
##########                Cloud:                    1
##########        Electrostatic:           -41.453354
##########                 Gist:             0.000000
##########        Van der Waals:           -30.801529
##########  Ligand Polar Desolv:            12.223313
########## Ligand Apolar Desolv:            -2.688512
##########      Internal Energy:             0.000000
##########      Receptor Energy:             0.000000
########## Receptor Desolvation:             0.000000
########## Receptor Hydrophobic:             0.000000
##########         Total Energy:           -62.720081
##########        Ligand Charge:             1.000000
##########            Arbitrary:    +999.9990
##########        Ligand Energy:             0.000000

@<TRIPOS>MOLECULE
 ZINC000072898431      none
   52    54     0     0     0



@<TRIPOS>ATOM
      1 C1        -12.2150    14.1461   -14.3668 C.3        1  LIG1  -0.1500
      2 C2        -13.5415    13.4774   -14.0006 C.3        1  LIG1  -0.1400
      3 C3        -14.3975    14.4526   -13.1900 C.3        1  LIG1   0.0900
      4 N1        -14.6596    15.6525   -13.9888 N.am       1  LIG1  -0.5400
      5 C4        -13.8046    16.6851   -13.9244 C.2        1  LIG1   0.7100
      6 O1        -12.8317    16.5953   -13.2015 O.2        1  LIG1  -0.5000
      7 N2        -13.9843    17.8135   -14.6298 N.am       1  LIG1  -0.6600
      8 C5        -15.0495    17.9579   -15.4450 C.2        1  LIG1   0.5900
      9 O2        -15.2091    18.9820   -16.0833 O.2        1  LIG1  -0.5200
     10 C6        -16.0120    16.8534   -15.5466 C.2        1  LIG1  -0.4700
     11 C7        -17.1441    16.9487   -16.3839 C.2        1  LIG1   0.4300
     12 O3        -18.2590    16.8610   -15.9101 O.2        1  LIG1  -0.5100
     13 C8        -16.9697    17.1592   -17.8659 C.3        1  LIG1  -0.0300
     14 N3        -18.0910    16.5387   -18.5840 N.4        1  LIG1  -0.3900
     15 H1        -18.3328    15.6540   -18.1633 H          1  LIG1   0.4300
     16 C9        -17.7513    16.3559   -20.0191 C.3        1  LIG1   0.0000
     17 C10       -19.1176    16.2573   -20.7335 C.3        1  LIG1  -0.1400
     18 C11       -20.1046    16.9766   -19.7992 C.3        1  LIG1  -0.0800
     19 C12       -19.2674    17.4476   -18.5952 C.3        1  LIG1   0.0000
     20 C13       -20.7271    18.1751   -20.5095 C.3        1  LIG1  -0.1500
     21 C14       -21.7474    18.8384   -19.5788 C.3        1  LIG1   0.0500
     22 O4        -22.7244    17.8731   -19.1832 O.3        1  LIG1  -0.3700
     23 C15       -22.1923    16.7656   -18.4536 C.3        1  LIG1   0.0500
     24 C16       -21.1915    16.0113   -19.3348 C.3        1  LIG1  -0.1500
     25 C17       -15.7661    15.6956   -14.7883 C.2        1  LIG1   0.5800
     26 N4        -16.6223    14.6396   -14.8413 N.pl3      1  LIG1  -0.7800
     27 H2        -11.6051    13.4514   -14.9443 H          1  LIG1   0.0700
     28 H3        -12.4101    15.0388   -14.9611 H          1  LIG1   0.0600
     29 H4        -11.6849    14.4246   -13.4561 H          1  LIG1   0.0700
     30 H5        -14.0716    13.1989   -14.9113 H          1  LIG1   0.0800
     31 H6        -13.3464    12.5847   -13.4063 H          1  LIG1   0.0700
     32 H7        -15.3426    13.9763   -12.9291 H          1  LIG1   0.1000
     33 H8        -13.8673    14.7311   -12.2793 H          1  LIG1   0.1200
     34 H9        -13.3401    18.5345   -14.5519 H          1  LIG1   0.4400
     35 H10       -16.9470    18.2276   -18.0810 H          1  LIG1   0.1600
     36 H11       -16.0339    16.7035   -18.1900 H          1  LIG1   0.1700
     37 H12       -17.1899    17.2139   -20.3890 H          1  LIG1   0.1300
     38 H13       -17.1811    15.4377   -20.1608 H          1  LIG1   0.1400
     39 H14       -19.0769    16.7587   -21.7005 H          1  LIG1   0.1100
     40 H15       -19.4058    15.2135   -20.8584 H          1  LIG1   0.1000
     41 H16       -19.8383    17.3474   -17.6722 H          1  LIG1   0.1400
     42 H17       -18.9468    18.4799   -18.7352 H          1  LIG1   0.1400
     43 H18       -19.9472    18.8924   -20.7650 H          1  LIG1   0.0900
     44 H19       -21.2270    17.8405   -21.4185 H          1  LIG1   0.0900
     45 H20       -21.2377    19.2231   -18.6955 H          1  LIG1   0.0500
     46 H21       -22.2380    19.6588   -20.1025 H          1  LIG1   0.1100
     47 H22       -21.6874    17.1286   -17.5584 H          1  LIG1   0.0500
     48 H23       -23.0028    16.0951   -18.1679 H          1  LIG1   0.1100
     49 H24       -21.7078    15.5996   -20.2020 H          1  LIG1   0.1000
     50 H25       -20.7391    15.2021   -18.7613 H          1  LIG1   0.0800
     51 H26       -16.4494    13.8477   -14.3086 H          1  LIG1   0.4400
     52 H27       -17.4059    14.6787   -15.4119 H          1  LIG1   0.4200
@<TRIPOS>BOND
     1    1    2 1
     2    1   27 1
     3    1   28 1
     4    1   29 1
     5    2    3 1
     6    2   30 1
     7    2   31 1
     8    3    4 1
     9    3   32 1
    10    3   33 1
    11    4   25 1
    12    4    5 am
    13    5    6 2
    14    5    7 am
    15    7    8 am
    16    7   34 1
    17    8    9 2
    18    8   10 1
    19   10   11 1
    20   10   25 2
    21   11   12 2
    22   11   13 1
    23   13   14 1
    24   13   35 1
    25   13   36 1
    26   14   15 1
    27   14   19 1
    28   14   16 1
    29   16   17 1
    30   16   37 1
    31   16   38 1
    32   17   18 1
    33   17   39 1
    34   17   40 1
    35   18   24 1
    36   18   19 1
    37   18   20 1
    38   19   41 1
    39   19   42 1
    40   20   21 1
    41   20   43 1
    42   20   44 1
    43   21   22 1
    44   21   45 1
    45   21   46 1
    46   22   23 1
    47   23   24 1
    48   23   47 1
    49   23   48 1
    50   24   49 1
    51   24   50 1
    52   25   26 1
    53   26   51 1
    54   26   52 1
##########                 Name:     ZINC000289891082
##########          Protonation:                 none
##########               SMILES:   OC[C@@]1(C[NH2+]CC2=CC3=CC=CC=C3OC2)C[C@@H]1C1=CC=CC=C1
##########            Long Name:   NO_LONG_NAME
##########          FlexRecCode: 1
##########               Number:                 4201
##########   Ligand Source File: /nfs/db/export/3D/DG/ADRO/DGADRO.xaxy.db2.gz
##########                 Rank:                    1
##########               Setnum:                   29
##########             Matchnum:                    1
##########                Cloud:                    1
##########        Electrostatic:           -40.954842
##########                 Gist:             0.000000
##########        Van der Waals:           -32.201988
##########  Ligand Polar Desolv:            11.679288
########## Ligand Apolar Desolv:            -4.296446
##########      Internal Energy:             0.000000
##########      Receptor Energy:             0.000000
########## Receptor Desolvation:             0.000000
########## Receptor Hydrophobic:             0.000000
##########         Total Energy:           -65.773987
##########        Ligand Charge:             1.000000
##########            Arbitrary:    +999.9990
##########        Ligand Energy:             0.000000

@<TRIPOS>MOLECULE
 ZINC000289891082      none
   48    51     0     0     0



@<TRIPOS>ATOM
      1 O1        -19.5320    16.8467   -16.3667 O.3        1  LIG1  -0.5800
      2 C1        -19.9410    17.6406   -17.4822 C.3        1  LIG1   0.1000
      3 C2        -19.0534    17.3228   -18.6872 C.3        1  LIG1  -0.1700
      4 C3        -17.5477    17.4590   -18.4517 C.3        1  LIG1   0.0300
      5 N1        -17.1347    16.5426   -17.3804 N.4        1  LIG1  -0.5100
      6 H1        -17.6300    16.7721   -16.5320 H          1  LIG1   0.4200
      7 H2        -17.3487    15.5936   -17.6486 H          1  LIG1   0.4300
      8 C4        -15.6890    16.6734   -17.1545 C.3        1  LIG1   0.0500
      9 C5        -15.2654    15.7333   -16.0556 C.2        1  LIG1  -0.2700
     10 C6        -15.9238    14.5933   -15.8689 C.2        1  LIG1   0.0100
     11 C7        -15.5024    13.7145   -14.7576 C.ar       1  LIG1  -0.1700
     12 C8        -15.9387    12.3975   -14.6691 C.ar       1  LIG1  -0.0500
     13 C9        -15.5094    11.6063   -13.6206 C.ar       1  LIG1  -0.1500
     14 C10       -14.6502    12.1191   -12.6650 C.ar       1  LIG1  -0.0600
     15 C11       -14.2151    13.4304   -12.7424 C.ar       1  LIG1  -0.1400
     16 C12       -14.6416    14.2356   -13.7817 C.ar       1  LIG1   0.1400
     17 O2        -14.2629    15.5368   -13.8673 O.3        1  LIG1  -0.3100
     18 C13       -14.0943    16.0854   -15.1771 C.3        1  LIG1   0.1100
     19 C14       -19.5230    16.2214   -19.6398 C.3        1  LIG1  -0.1300
     20 C15       -19.5874    17.6871   -20.0738 C.3        1  LIG1  -0.0900
     21 H3        -20.5712    18.1533   -20.1277 H          1  LIG1   0.1300
     22 C16       -18.5905    18.1523   -21.1038 C.ar       1  LIG1  -0.0900
     23 C17       -18.2869    19.4963   -21.2143 C.ar       1  LIG1  -0.1300
     24 C18       -17.3724    19.9230   -22.1590 C.ar       1  LIG1  -0.1100
     25 C19       -16.7611    19.0056   -22.9930 C.ar       1  LIG1  -0.1100
     26 C20       -17.0640    17.6615   -22.8819 C.ar       1  LIG1  -0.1100
     27 C21       -17.9754    17.2343   -21.9343 C.ar       1  LIG1  -0.1100
     28 H4        -19.5896    15.8936   -16.5200 H          1  LIG1   0.4000
     29 H5        -20.9793    17.4161   -17.7267 H          1  LIG1   0.0700
     30 H6        -19.8472    18.6969   -17.2304 H          1  LIG1   0.0600
     31 H7        -17.0127    17.2110   -19.3685 H          1  LIG1   0.1500
     32 H8        -17.3165    18.4841   -18.1622 H          1  LIG1   0.1300
     33 H9        -15.1541    16.4255   -18.0712 H          1  LIG1   0.1400
     34 H10       -15.4579    17.6985   -16.8648 H          1  LIG1   0.1400
     35 H11       -16.7457    14.3167   -16.5126 H          1  LIG1   0.1400
     36 H12       -16.6091    11.9956   -15.4144 H          1  LIG1   0.1400
     37 H13       -15.8462    10.5828   -13.5467 H          1  LIG1   0.1400
     38 H14       -14.3169    11.4912   -11.8519 H          1  LIG1   0.1400
     39 H15       -13.5445    13.8236   -11.9927 H          1  LIG1   0.1400
     40 H16       -13.1770    15.6921   -15.6153 H          1  LIG1   0.0800
     41 H17       -14.0195    17.1704   -15.1044 H          1  LIG1   0.1100
     42 H18       -18.7593    15.5936   -20.0989 H          1  LIG1   0.1100
     43 H19       -20.4644    15.7234   -19.4080 H          1  LIG1   0.1200
     44 H20       -18.7644    20.2131   -20.5627 H          1  LIG1   0.1300
     45 H21       -17.1357    20.9732   -22.2457 H          1  LIG1   0.1300
     46 H22       -16.0472    19.3390   -23.7315 H          1  LIG1   0.1300
     47 H23       -16.5868    16.9446   -23.5338 H          1  LIG1   0.1300
     48 H24       -18.2120    16.1841   -21.8475 H          1  LIG1   0.1300
@<TRIPOS>BOND
     1    1    2 1
     2    1   28 1
     3    2    3 1
     4    2   29 1
     5    2   30 1
     6    3   20 1
     7    3    4 1
     8    3   19 1
     9    4    5 1
    10    4   31 1
    11    4   32 1
    12    5    6 1
    13    5    7 1
    14    5    8 1
    15    8    9 1
    16    8   33 1
    17    8   34 1
    18    9   18 1
    19    9   10 2
    20   10   11 1
    21   10   35 1
    22   11   16 ar
    23   11   12 ar
    24   12   13 ar
    25   12   36 1
    26   13   14 ar
    27   13   37 1
    28   14   15 ar
    29   14   38 1
    30   15   16 ar
    31   15   39 1
    32   16   17 1
    33   17   18 1
    34   18   40 1
    35   18   41 1
    36   19   20 1
    37   19   42 1
    38   19   43 1
    39   20   21 1
    40   20   22 1
    41   22   27 ar
    42   22   23 ar
    43   23   24 ar
    44   23   44 1
    45   24   25 ar
    46   24   45 1
    47   25   26 ar
    48   25   46 1
    49   26   27 ar
    50   26   47 1
    51   27   48 1
##########                 Name:     ZINC000248628073
##########          Protonation:                 none
##########               SMILES:   CC(C)[N@H+]1C[C@H](C)[C@H](NC(=O)C2=NN(C3=CC=C(F)C=C3F)C=C2)C1
##########            Long Name:   NO_LONG_NAME
##########          FlexRecCode: 1
##########               Number:                  643
##########   Ligand Source File: /nfs/db/export/3D/EF/ADMO/EFADMO.xbad.db2.gz
##########                 Rank:                    1
##########               Setnum:                    7
##########             Matchnum:                    1
##########                Cloud:                    1
##########        Electrostatic:           -38.463963
##########                 Gist:             0.000000
##########        Van der Waals:           -34.835606
##########  Ligand Polar Desolv:            15.222357
########## Ligand Apolar Desolv:            -5.745642
##########      Internal Energy:             0.000000
##########      Receptor Energy:             0.000000
########## Receptor Desolvation:             0.000000
########## Receptor Hydrophobic:             0.000000
##########         Total Energy:           -63.822853
##########        Ligand Charge:             1.000000
##########            Arbitrary:    +999.9990
##########        Ligand Energy:             0.000000

@<TRIPOS>MOLECULE
 ZINC000248628073      none
   48    50     0     0     0



@<TRIPOS>ATOM
      1 C1        -21.5458    15.3619   -19.8477 C.3        1  LIG1  -0.1800
      2 C2        -21.4342    16.4918   -18.8220 C.3        1  LIG1   0.0300
      3 C3        -22.2295    16.1226   -17.5681 C.3        1  LIG1  -0.1800
      4 N1        -20.0232    16.6919   -18.4656 N.4        1  LIG1  -0.3900
      5 H1        -19.6408    15.8466   -18.0688 H          1  LIG1   0.4200
      6 C4        -19.2472    17.0913   -19.6597 C.3        1  LIG1  -0.0100
      7 C5        -18.1762    18.0923   -19.1885 C.3        1  LIG1  -0.1100
      8 H2        -18.3028    19.0486   -19.6961 H          1  LIG1   0.1300
      9 C6        -16.7758    17.5344   -19.4502 C.3        1  LIG1  -0.1600
     10 C7        -18.4161    18.2553   -17.6700 C.3        1  LIG1   0.1300
     11 H3        -18.2867    19.2947   -17.3684 H          1  LIG1   0.1400
     12 N2        -17.5218    17.3810   -16.9071 N.am       1  LIG1  -0.7300
     13 C8        -16.3370    17.8484   -16.4663 C.2        1  LIG1   0.6200
     14 O1        -16.0105    18.9956   -16.7017 O.2        1  LIG1  -0.5100
     15 C9        -15.4356    16.9671   -15.6975 C.2        1  LIG1  -0.0200
     16 N3        -15.6578    15.7075   -15.3762 N.2        1  LIG1  -0.2500
     17 N4        -14.6667    15.2413   -14.7046 N.pl3      1  LIG1  -0.2200
     18 C10       -14.5778    13.9337   -14.2066 C.ar       1  LIG1   0.0800
     19 C11       -15.1993    12.8905   -14.8783 C.ar       1  LIG1  -0.0600
     20 C12       -15.1104    11.6026   -14.3866 C.ar       1  LIG1  -0.1400
     21 C13       -14.4018    11.3509   -13.2238 C.ar       1  LIG1   0.1500
     22 F1        -14.3163    10.0901   -12.7457 F          1  LIG1  -0.1200
     23 C14       -13.7801    12.3892   -12.5504 C.ar       1  LIG1  -0.1700
     24 C15       -13.8618    13.6792   -13.0416 C.ar       1  LIG1   0.1500
     25 F2        -13.2555    14.6925   -12.3851 F          1  LIG1  -0.1100
     26 C16       -13.7175    16.2001   -14.5477 C.2        1  LIG1  -0.0100
     27 C17       -14.1681    17.3134   -15.1719 C.2        1  LIG1  -0.1600
     28 C18       -19.8926    17.8146   -17.5019 C.3        1  LIG1  -0.0200
     29 H4        -20.9792    15.6249   -20.7409 H          1  LIG1   0.0800
     30 H5        -21.1451    14.4427   -19.4207 H          1  LIG1   0.0800
     31 H6        -22.5928    15.2135   -20.1121 H          1  LIG1   0.1100
     32 H7        -21.8350    17.4110   -19.2490 H          1  LIG1   0.1400
     33 H8        -22.1501    16.9274   -16.8374 H          1  LIG1   0.0800
     34 H9        -23.2765    15.9741   -17.8328 H          1  LIG1   0.0800
     35 H10       -21.8288    15.2032   -17.1412 H          1  LIG1   0.1100
     36 H11       -18.7694    16.2168   -20.1015 H          1  LIG1   0.1300
     37 H12       -19.9046    17.5660   -20.3880 H          1  LIG1   0.1400
     38 H13       -16.0294    18.2530   -19.1120 H          1  LIG1   0.0800
     39 H14       -16.6507    16.5977   -18.9071 H          1  LIG1   0.0800
     40 H15       -16.6498    17.3550   -20.5179 H          1  LIG1   0.0600
     41 H16       -17.7824    16.4657   -16.7193 H          1  LIG1   0.4100
     42 H17       -15.7526    13.0854   -15.7850 H          1  LIG1   0.1600
     43 H18       -15.5946    10.7911   -14.9094 H          1  LIG1   0.1600
     44 H19       -13.2281    12.1907   -11.6436 H          1  LIG1   0.1600
     45 H20       -12.7777    16.0930   -14.0263 H          1  LIG1   0.1900
     46 H21       -13.6684    18.2679   -15.2472 H          1  LIG1   0.1800
     47 H22       -20.5692    18.6276   -17.7661 H          1  LIG1   0.1500
     48 H23       -20.0787    17.4734   -16.4836 H          1  LIG1   0.1400
@<TRIPOS>BOND
     1    1    2 1
     2    1   29 1
     3    1   30 1
     4    1   31 1
     5    2    3 1
     6    2    4 1
     7    2   32 1
     8    3   33 1
     9    3   34 1
    10    3   35 1
    11    4    5 1
    12    4   28 1
    13    4    6 1
    14    6    7 1
    15    6   36 1
    16    6   37 1
    17    7    8 1
    18    7    9 1
    19    7   10 1
    20    9   38 1
    21    9   39 1
    22    9   40 1
    23   10   11 1
    24   10   12 1
    25   10   28 1
    26   12   13 am
    27   12   41 1
    28   13   14 2
    29   13   15 1
    30   15   27 1
    31   15   16 2
    32   16   17 1
    33   17   18 1
    34   17   26 1
    35   18   24 ar
    36   18   19 ar
    37   19   20 ar
    38   19   42 1
    39   20   21 ar
    40   20   43 1
    41   21   22 1
    42   21   23 ar
    43   23   24 ar
    44   23   44 1
    45   24   25 1
    46   26   27 2
    47   26   45 1
    48   27   46 1
    49   28   47 1
    50   28   48 1
##########                 Name:     ZINC000619015053
##########          Protonation:                 none
##########               SMILES:   CCC[C@H](C(=O)NC1=CN=C2C(C)=CC=CN12)[NH+](C)C
##########            Long Name:   NO_LONG_NAME
##########          FlexRecCode: 1
##########               Number:                 9547
##########   Ligand Source File: /nfs/db/export/3D/CE/ADRO/CEADRO.xaig.db2.gz
##########                 Rank:                    1
##########               Setnum:                    7
##########             Matchnum:                    1
##########                Cloud:                    1
##########        Electrostatic:           -49.527489
##########                 Gist:             0.000000
##########        Van der Waals:           -28.273373
##########  Ligand Polar Desolv:            19.911110
########## Ligand Apolar Desolv:            -5.220064
##########      Internal Energy:             0.000000
##########      Receptor Energy:             0.000000
########## Receptor Desolvation:             0.000000
########## Receptor Hydrophobic:             0.000000
##########         Total Energy:           -63.109810
##########        Ligand Charge:             1.000000
##########            Arbitrary:    +999.9990
##########        Ligand Energy:             0.000000

@<TRIPOS>MOLECULE
 ZINC000619015053      none
   43    44     0     0     0



@<TRIPOS>ATOM
      1 C1        -16.1336    18.6618   -20.1723 C.3        1  LIG1  -0.1600
      2 C2        -15.8758    17.2402   -19.6691 C.3        1  LIG1  -0.1400
      3 C3        -17.2038    16.4877   -19.5632 C.3        1  LIG1  -0.1400
      4 C4        -18.1260    17.2162   -18.5836 C.3        1  LIG1   0.0100
      5 H1        -18.3097    18.2290   -18.9422 H          1  LIG1   0.1600
      6 C5        -17.4723    17.2744   -17.2270 C.2        1  LIG1   0.5100
      7 O1        -17.2358    18.3477   -16.7132 O.2        1  LIG1  -0.5000
      8 N1        -17.1502    16.1342   -16.5845 N.am       1  LIG1  -0.6100
      9 C6        -16.0559    16.1077   -15.7118 C.2        1  LIG1   0.1200
     10 C7        -15.2374    17.1483   -15.4123 C.2        1  LIG1   0.0500
     11 N2        -14.3143    16.7269   -14.5426 N.2        1  LIG1  -0.4700
     12 C8        -14.5181    15.4455   -14.2761 C.2        1  LIG1   0.2500
     13 C9        -13.8454    14.5317   -13.4398 C.2        1  LIG1  -0.0300
     14 C10       -12.6470    14.9724   -12.6394 C.3        1  LIG1  -0.1100
     15 C11       -14.2889    13.2484   -13.3620 C.2        1  LIG1  -0.1100
     16 C12       -15.4082    12.8501   -14.1133 C.2        1  LIG1  -0.1100
     17 C13       -16.0433    13.7335   -14.9103 C.2        1  LIG1   0.0200
     18 N3        -15.6130    15.0285   -14.9947 N.pl3      1  LIG1  -0.3700
     19 N4        -19.4012    16.4938   -18.4820 N.4        1  LIG1  -0.3700
     20 H2        -19.2311    15.5562   -18.1502 H          1  LIG1   0.4300
     21 C14       -20.2866    17.1932   -17.5413 C.3        1  LIG1  -0.0600
     22 C15       -20.0384    16.4373   -19.8044 C.3        1  LIG1  -0.0500
     23 H3        -15.1875    19.1977   -20.2477 H          1  LIG1   0.0600
     24 H4        -16.6064    18.6196   -21.1536 H          1  LIG1   0.0600
     25 H5        -16.7907    19.1807   -19.4743 H          1  LIG1   0.0700
     26 H6        -15.2188    16.7211   -20.3671 H          1  LIG1   0.0600
     27 H7        -15.4028    17.2822   -18.6879 H          1  LIG1   0.0800
     28 H8        -17.6767    16.4457   -20.5444 H          1  LIG1   0.1100
     29 H9        -17.0201    15.4749   -19.2048 H          1  LIG1   0.1100
     30 H10       -17.6767    15.3321   -16.7268 H          1  LIG1   0.4200
     31 H11       -15.3182    18.1489   -15.8105 H          1  LIG1   0.2000
     32 H12       -12.2680    14.1311   -12.0594 H          1  LIG1   0.0800
     33 H13       -11.8692    15.3275   -13.3155 H          1  LIG1   0.0800
     34 H14       -12.9371    15.7776   -11.9644 H          1  LIG1   0.0800
     35 H15       -13.7827    12.5379   -12.7255 H          1  LIG1   0.1500
     36 H16       -15.7614    11.8312   -14.0523 H          1  LIG1   0.1600
     37 H17       -16.9020    13.4165   -15.4834 H          1  LIG1   0.1600
     38 H18       -21.2327    16.6571   -17.4661 H          1  LIG1   0.1200
     39 H19       -19.8136    17.2352   -16.5601 H          1  LIG1   0.1300
     40 H20       -20.4703    18.2060   -17.8998 H          1  LIG1   0.1300
     41 H21       -20.9846    15.9013   -19.7289 H          1  LIG1   0.1300
     42 H22       -20.2222    17.4500   -20.1628 H          1  LIG1   0.1300
     43 H23       -19.3816    15.9183   -20.5024 H          1  LIG1   0.1300
@<TRIPOS>BOND
     1    1    2 1
     2    1   23 1
     3    1   24 1
     4    1   25 1
     5    2    3 1
     6    2   26 1
     7    2   27 1
     8    3    4 1
     9    3   28 1
    10    3   29 1
    11    4    5 1
    12    4    6 1
    13    4   19 1
    14    6    7 2
    15    6    8 am
    16    8    9 1
    17    8   30 1
    18    9   18 1
    19    9   10 2
    20   10   11 1
    21   10   31 1
    22   11   12 2
    23   12   18 1
    24   12   13 1
    25   13   14 1
    26   13   15 2
    27   14   32 1
    28   14   33 1
    29   14   34 1
    30   15   16 1
    31   15   35 1
    32   16   17 2
    33   16   36 1
    34   17   18 1
    35   17   37 1
    36   19   20 1
    37   19   21 1
    38   19   22 1
    39   21   38 1
    40   21   39 1
    41   21   40 1
    42   22   41 1
    43   22   42 1
    44   22   43 1
##########                 Name:     ZINC000590340455
##########          Protonation:                 none
##########               SMILES:   C[C@H]1CC[C@@H](CNC(=O)C2=NN(C3=CC=CC([N+](=O)[O-])=C3)C=C2)[N@H+]1C
##########            Long Name:   NO_LONG_NAME
##########          FlexRecCode: 1
##########               Number:                 3819
##########   Ligand Source File: /nfs/db/export/3D/ED/BDMO/EDBDMO.xak.db2.gz
##########                 Rank:                    1
##########               Setnum:                    9
##########             Matchnum:                    1
##########                Cloud:                    1
##########        Electrostatic:           -37.434883
##########                 Gist:             0.000000
##########        Van der Waals:           -37.742359
##########  Ligand Polar Desolv:            18.528019
########## Ligand Apolar Desolv:            -5.777300
##########      Internal Energy:             0.000000
##########      Receptor Energy:             0.000000
########## Receptor Desolvation:             0.000000
########## Receptor Hydrophobic:             0.000000
##########         Total Energy:           -62.426529
##########        Ligand Charge:             1.000000
##########            Arbitrary:    +999.9990
##########        Ligand Energy:             0.000000

@<TRIPOS>MOLECULE
 ZINC000590340455      none
   47    49     0     0     0



@<TRIPOS>ATOM
      1 C1        -22.3624    16.8123   -18.2116 C.3        1  LIG1  -0.1800
      2 C2        -21.2846    15.9324   -18.8480 C.3        1  LIG1   0.0200
      3 H1        -21.5005    14.8820   -18.6526 H          1  LIG1   0.1400
      4 C3        -21.2327    16.1834   -20.3696 C.3        1  LIG1  -0.1400
      5 C4        -20.0703    17.2004   -20.5166 C.3        1  LIG1  -0.1300
      6 C5        -19.0923    16.7187   -19.4163 C.3        1  LIG1   0.0100
      7 H2        -18.4952    15.8820   -19.7790 H          1  LIG1   0.1500
      8 C6        -18.1838    17.8667   -18.9715 C.3        1  LIG1   0.1000
      9 N1        -17.2679    17.3902   -17.9321 N.am       1  LIG1  -0.7400
     10 C7        -16.3697    18.2340   -17.3869 C.2        1  LIG1   0.6200
     11 O1        -16.3192    19.3907   -17.7577 O.2        1  LIG1  -0.5000
     12 C8        -15.4464    17.7535   -16.3392 C.2        1  LIG1  -0.0100
     13 N2        -15.3866    16.5312   -15.8485 N.2        1  LIG1  -0.2600
     14 N3        -14.4696    16.4594   -14.9516 N.pl3      1  LIG1  -0.2300
     15 C9        -14.1410    15.3042   -14.2300 C.ar       1  LIG1   0.1400
     16 C10       -13.1323    15.3427   -13.2768 C.ar       1  LIG1  -0.0700
     17 C11       -12.8111    14.2023   -12.5667 C.ar       1  LIG1  -0.0800
     18 C12       -13.4925    13.0231   -12.8047 C.ar       1  LIG1  -0.0500
     19 C13       -14.4978    12.9814   -13.7536 C.ar       1  LIG1  -0.0200
     20 N4        -15.2248    11.7169   -14.0054 N.pl3      1  LIG1   0.0200
     21 O2        -14.9377    10.7138   -13.3771 O.2        1  LIG1  -0.1300
     22 O3        -16.1104    11.6796   -14.8409 O.2        1  LIG1  -0.1600
     23 C14       -14.8275    14.1195   -14.4628 C.ar       1  LIG1  -0.0500
     24 C15       -13.8645    17.6670   -14.8053 C.2        1  LIG1   0.0000
     25 C16       -14.4555    18.5170   -15.6773 C.2        1  LIG1  -0.1600
     26 N5        -19.9620    16.2831   -18.2986 N.4        1  LIG1  -0.3900
     27 H3        -19.5550    15.4787   -17.8451 H          1  LIG1   0.4300
     28 C17       -20.1071    17.3774   -17.3294 C.3        1  LIG1  -0.0700
     29 H4        -22.1401    17.8606   -18.4109 H          1  LIG1   0.0800
     30 H5        -23.3344    16.5600   -18.6356 H          1  LIG1   0.1000
     31 H6        -22.3807    16.6432   -17.1350 H          1  LIG1   0.0800
     32 H7        -21.0079    15.2611   -20.9051 H          1  LIG1   0.1000
     33 H8        -22.1697    16.6156   -20.7212 H          1  LIG1   0.1200
     34 H9        -19.6128    17.1305   -21.5036 H          1  LIG1   0.1200
     35 H10       -20.4126    18.2160   -20.3176 H          1  LIG1   0.1000
     36 H11       -17.6090    18.2267   -19.8249 H          1  LIG1   0.1200
     37 H12       -18.7927    18.6790   -18.5747 H          1  LIG1   0.1000
     38 H13       -17.3082    16.4671   -17.6362 H          1  LIG1   0.4000
     39 H14       -12.5992    16.2634   -13.0909 H          1  LIG1   0.1600
     40 H15       -12.0265    14.2316   -11.8250 H          1  LIG1   0.1700
     41 H16       -13.2390    12.1325   -12.2488 H          1  LIG1   0.1700
     42 H17       -15.6129    14.0865   -15.2034 H          1  LIG1   0.1700
     43 H18       -13.0600    17.9031   -14.1246 H          1  LIG1   0.2000
     44 H19       -14.2242    19.5608   -15.8306 H          1  LIG1   0.1800
     45 H20       -19.1289    17.6358   -16.9240 H          1  LIG1   0.1300
     46 H21       -20.5360    18.2478   -17.8259 H          1  LIG1   0.1300
     47 H22       -20.7641    17.0607   -16.5195 H          1  LIG1   0.1300
@<TRIPOS>BOND
     1    1    2 1
     2    1   29 1
     3    1   30 1
     4    1   31 1
     5    2    3 1
     6    2   26 1
     7    2    4 1
     8    4    5 1
     9    4   32 1
    10    4   33 1
    11    5    6 1
    12    5   34 1
    13    5   35 1
    14    6    7 1
    15    6    8 1
    16    6   26 1
    17    8    9 1
    18    8   36 1
    19    8   37 1
    20    9   10 am
    21    9   38 1
    22   10   11 2
    23   10   12 1
    24   12   25 1
    25   12   13 2
    26   13   14 1
    27   14   15 1
    28   14   24 1
    29   15   23 ar
    30   15   16 ar
    31   16   17 ar
    32   16   39 1
    33   17   18 ar
    34   17   40 1
    35   18   19 ar
    36   18   41 1
    37   19   20 1
    38   19   23 ar
    39   20   21 2
    40   20   22 2
    41   23   42 1
    42   24   25 2
    43   24   43 1
    44   25   44 1
    45   26   27 1
    46   26   28 1
    47   28   45 1
    48   28   46 1
    49   28   47 1
##########                 Name:     ZINC000272585301
##########          Protonation:                 none
##########               SMILES:   C[N@@H+](CC1=CN(C2=CC=CC=C2)N=C1)C[C@@H]1CCCC[C@H]1O
##########            Long Name:   NO_LONG_NAME
##########          FlexRecCode: 1
##########               Number:                 8197
##########   Ligand Source File: /nfs/db/export/3D/CF/ADRO/CFADRO.xbxw.db2.gz
##########                 Rank:                    1
##########               Setnum:                   44
##########             Matchnum:                    1
##########                Cloud:                    1
##########        Electrostatic:           -42.179031
##########                 Gist:             0.000000
##########        Van der Waals:           -32.096222
##########  Ligand Polar Desolv:            11.582880
########## Ligand Apolar Desolv:            -5.094782
##########      Internal Energy:             0.000000
##########      Receptor Energy:             0.000000
########## Receptor Desolvation:             0.000000
########## Receptor Hydrophobic:             0.000000
##########         Total Energy:           -67.787155
##########        Ligand Charge:             1.000000
##########            Arbitrary:    +999.9990
##########        Ligand Energy:             0.000000

@<TRIPOS>MOLECULE
 ZINC000272585301      none
   48    50     0     0     0



@<TRIPOS>ATOM
      1 C1        -17.1100    15.9319   -19.3522 C.3        1  LIG1  -0.0500
      2 N1        -17.7012    16.9122   -18.4315 N.4        1  LIG1  -0.3900
      3 H1        -18.1484    16.4285   -17.6671 H          1  LIG1   0.4200
      4 C2        -16.6459    17.7886   -17.9058 C.3        1  LIG1   0.0800
      5 C3        -15.9165    17.0838   -16.7912 C.2        1  LIG1  -0.3100
      6 C4        -16.1739    15.8359   -16.3356 C.2        1  LIG1   0.1000
      7 N2        -15.3024    15.5754   -15.3349 N.pl3      1  LIG1  -0.3000
      8 C5        -15.2298    14.3887   -14.5922 C.ar       1  LIG1   0.1300
      9 C6        -14.2851    14.2561   -13.5835 C.ar       1  LIG1  -0.1300
     10 C7        -14.2159    13.0856   -12.8535 C.ar       1  LIG1  -0.0900
     11 C8        -15.0862    12.0463   -13.1267 C.ar       1  LIG1  -0.1100
     12 C9        -16.0281    12.1755   -14.1307 C.ar       1  LIG1  -0.0900
     13 C10       -16.1062    13.3458   -14.8601 C.ar       1  LIG1  -0.1100
     14 N3        -14.4845    16.7009   -15.1726 N.2        1  LIG1  -0.2700
     15 C11       -14.8497    17.6020   -16.0488 C.2        1  LIG1   0.0800
     16 C12       -18.6963    17.7200   -19.1491 C.3        1  LIG1   0.0000
     17 C13       -20.0054    16.9360   -19.2603 C.3        1  LIG1  -0.1100
     18 H2        -19.7854    15.8897   -19.4720 H          1  LIG1   0.1000
     19 C14       -20.8538    17.5182   -20.3927 C.3        1  LIG1  -0.1300
     20 C15       -22.1628    16.7342   -20.5042 C.3        1  LIG1  -0.1200
     21 C16       -22.9325    16.8369   -19.1859 C.3        1  LIG1  -0.1200
     22 C17       -22.0843    16.2548   -18.0534 C.3        1  LIG1  -0.1500
     23 C18       -20.7750    17.0388   -17.9421 C.3        1  LIG1   0.1200
     24 H3        -20.9950    18.0851   -17.7302 H          1  LIG1   0.0700
     25 O1        -19.9827    16.4951   -16.8843 O.3        1  LIG1  -0.5700
     26 H4        -16.6268    16.4544   -20.1779 H          1  LIG1   0.1200
     27 H5        -16.3717    15.3325   -18.8197 H          1  LIG1   0.1200
     28 H6        -17.8931    15.2816   -19.7423 H          1  LIG1   0.1200
     29 H7        -15.9437    18.0305   -18.7035 H          1  LIG1   0.1400
     30 H8        -17.0927    18.7066   -17.5242 H          1  LIG1   0.1300
     31 H9        -16.9384    15.1681   -16.7045 H          1  LIG1   0.1900
     32 H10       -13.6045    15.0672   -13.3702 H          1  LIG1   0.1300
     33 H11       -13.4812    12.9819   -12.0687 H          1  LIG1   0.1400
     34 H12       -15.0297    11.1317   -12.5551 H          1  LIG1   0.1400
     35 H13       -16.7065    11.3620   -14.3419 H          1  LIG1   0.1400
     36 H14       -16.8424    13.4461   -15.6438 H          1  LIG1   0.1400
     37 H15       -14.4077    18.5794   -16.1733 H          1  LIG1   0.2000
     38 H16       -18.8732    18.6472   -18.6037 H          1  LIG1   0.1400
     39 H17       -18.3250    17.9511   -20.1476 H          1  LIG1   0.1300
     40 H18       -21.0737    18.5645   -20.1810 H          1  LIG1   0.0800
     41 H19       -20.3054    17.4450   -21.3320 H          1  LIG1   0.0600
     42 H20       -22.7672    17.1489   -21.3109 H          1  LIG1   0.0800
     43 H21       -21.9429    15.6878   -20.7159 H          1  LIG1   0.0700
     44 H22       -23.1525    17.8832   -18.9741 H          1  LIG1   0.0700
     45 H23       -23.8652    16.2784   -19.2652 H          1  LIG1   0.0800
     46 H24       -22.6326    16.3279   -17.1143 H          1  LIG1   0.0800
     47 H25       -21.8642    15.2084   -18.2652 H          1  LIG1   0.0800
     48 H26       -19.7488    15.5648   -17.0065 H          1  LIG1   0.4000
@<TRIPOS>BOND
     1    1    2 1
     2    1   26 1
     3    1   27 1
     4    1   28 1
     5    2    3 1
     6    2    4 1
     7    2   16 1
     8    4    5 1
     9    4   29 1
    10    4   30 1
    11    5   15 1
    12    5    6 2
    13    6    7 1
    14    6   31 1
    15    7    8 1
    16    7   14 1
    17    8   13 ar
    18    8    9 ar
    19    9   10 ar
    20    9   32 1
    21   10   11 ar
    22   10   33 1
    23   11   12 ar
    24   11   34 1
    25   12   13 ar
    26   12   35 1
    27   13   36 1
    28   14   15 2
    29   15   37 1
    30   16   17 1
    31   16   38 1
    32   16   39 1
    33   17   18 1
    34   17   23 1
    35   17   19 1
    36   19   20 1
    37   19   40 1
    38   19   41 1
    39   20   21 1
    40   20   42 1
    41   20   43 1
    42   21   22 1
    43   21   44 1
    44   21   45 1
    45   22   23 1
    46   22   46 1
    47   22   47 1
    48   23   24 1
    49   23   25 1
    50   25   48 1
##########                 Name:     ZINC000370538526
##########          Protonation:                 none
##########               SMILES:   CC1(O)CC[NH+](CC2=CN=C(C3=CC=C(Cl)C=C3)N2)CC1
##########            Long Name:   NO_LONG_NAME
##########          FlexRecCode: 1
##########               Number:                 7850
##########   Ligand Source File: /nfs/db/export/3D/DG/ADRO/DGADRO.xaoi.db2.gz
##########                 Rank:                    1
##########               Setnum:                   51
##########             Matchnum:                    1
##########                Cloud:                    1
##########        Electrostatic:           -41.706360
##########                 Gist:             0.000000
##########        Van der Waals:           -33.120121
##########  Ligand Polar Desolv:            12.738955
########## Ligand Apolar Desolv:            -4.450301
##########      Internal Energy:             0.000000
##########      Receptor Energy:             0.000000
########## Receptor Desolvation:             0.000000
########## Receptor Hydrophobic:             0.000000
##########         Total Energy:           -66.537827
##########        Ligand Charge:             1.000000
##########            Arbitrary:    +999.9990
##########        Ligand Energy:             0.000000

@<TRIPOS>MOLECULE
 ZINC000370538526      none
   42    44     0     0     0



@<TRIPOS>ATOM
      1 C1        -22.8277    16.2659   -18.7302 C.3        1  LIG1  -0.1800
      2 C2        -21.4679    16.9461   -18.9006 C.3        1  LIG1   0.1200
      3 O1        -21.7306    18.2247   -19.4852 O.3        1  LIG1  -0.5600
      4 C3        -20.7935    17.1377   -17.5338 C.3        1  LIG1  -0.1700
      5 C4        -19.3644    17.6588   -17.6428 C.3        1  LIG1   0.0000
      6 N1        -18.5648    16.7483   -18.5416 N.4        1  LIG1  -0.3800
      7 H1        -18.6141    15.7908   -18.1262 H          1  LIG1   0.4200
      8 C5        -17.1129    17.1398   -18.5769 C.3        1  LIG1   0.0900
      9 C6        -16.4195    16.6093   -17.3486 C.2        1  LIG1  -0.1100
     10 C7        -15.5607    17.2846   -16.5579 C.2        1  LIG1   0.0600
     11 N2        -15.1638    16.4700   -15.5735 N.2        1  LIG1  -0.4700
     12 C8        -15.7457    15.3001   -15.7177 C.2        1  LIG1   0.3100
     13 C9        -15.5667    14.1289   -14.8324 C.ar       1  LIG1  -0.0400
     14 C10       -16.2420    12.9377   -15.1017 C.ar       1  LIG1  -0.0900
     15 C11       -16.0708    11.8486   -14.2726 C.ar       1  LIG1  -0.1100
     16 C12       -15.2314    11.9358   -13.1748 C.ar       1  LIG1  -0.0100
     17 Cl1       -15.0213    10.5612   -12.1356 Cl         1  LIG1  -0.0500
     18 C13       -14.5583    13.1150   -12.9030 C.ar       1  LIG1  -0.1100
     19 C14       -14.7176    14.2091   -13.7279 C.ar       1  LIG1  -0.0500
     20 N3        -16.5469    15.3526   -16.8207 N.pl3      1  LIG1  -0.5600
     21 C15       -19.1498    16.6564   -19.9293 C.3        1  LIG1  -0.0100
     22 C16       -20.5768    16.1252   -19.8450 C.3        1  LIG1  -0.1300
     23 H2        -23.4488    16.8585   -18.0585 H          1  LIG1   0.0700
     24 H3        -23.3172    16.1842   -19.7006 H          1  LIG1   0.0700
     25 H4        -22.6858    15.2701   -18.3100 H          1  LIG1   0.0800
     26 H5        -20.9378    18.7553   -19.6432 H          1  LIG1   0.3900
     27 H6        -21.3956    17.8445   -16.9326 H          1  LIG1   0.1200
     28 H7        -20.7903    16.1709   -16.9965 H          1  LIG1   0.1000
     29 H8        -19.3602    18.6552   -18.0735 H          1  LIG1   0.1300
     30 H9        -18.8945    17.6732   -16.6644 H          1  LIG1   0.1300
     31 H10       -16.6451    16.7207   -19.4678 H          1  LIG1   0.1400
     32 H11       -17.0300    18.2264   -18.6002 H          1  LIG1   0.1600
     33 H12       -15.2469    18.3087   -16.6958 H          1  LIG1   0.1900
     34 H13       -16.8975    12.8689   -15.9571 H          1  LIG1   0.1300
     35 H14       -16.5929    10.9262   -14.4799 H          1  LIG1   0.1400
     36 H15       -13.9046    13.1771   -12.0456 H          1  LIG1   0.1500
     37 H16       -14.1920    15.1282   -13.5152 H          1  LIG1   0.1500
     38 H17       -17.0979    14.6339   -17.1682 H          1  LIG1   0.4200
     39 H18       -19.1442    17.6485   -20.3698 H          1  LIG1   0.1300
     40 H19       -18.5331    15.9838   -20.5171 H          1  LIG1   0.1200
     41 H20       -20.5564    15.0754   -19.4968 H          1  LIG1   0.1000
     42 H21       -21.0277    16.1263   -20.8550 H          1  LIG1   0.1200
@<TRIPOS>BOND
     1    1    2 1
     2    1   23 1
     3    1   24 1
     4    1   25 1
     5    2   22 1
     6    2    3 1
     7    2    4 1
     8    3   26 1
     9    4    5 1
    10    4   27 1
    11    4   28 1
    12    5    6 1
    13    5   29 1
    14    5   30 1
    15    6    7 1
    16    6    8 1
    17    6   21 1
    18    8    9 1
    19    8   31 1
    20    8   32 1
    21    9   20 1
    22    9   10 2
    23   10   11 1
    24   10   33 1
    25   11   12 2
    26   12   13 1
    27   12   20 1
    28   13   19 ar
    29   13   14 ar
    30   14   15 ar
    31   14   34 1
    32   15   16 ar
    33   15   35 1
    34   16   17 1
    35   16   18 ar
    36   18   19 ar
    37   18   36 1
    38   19   37 1
    39   20   38 1
    40   21   22 1
    41   21   39 1
    42   21   40 1
    43   22   41 1
    44   22   42 1
##########                 Name:     ZINC000439472462
##########          Protonation:                 none
##########               SMILES:   CC1=CC(NC(=O)C(=O)N[C@H]2CC[N@@H+](CC3=CC=CC=C3)C2)=NN1C
##########            Long Name:   NO_LONG_NAME
##########          FlexRecCode: 1
##########               Number:                11722
##########   Ligand Source File: /nfs/db/export/3D/EC/ADMO/ECADMO.xoc.db2.gz
##########                 Rank:                    1
##########               Setnum:                   36
##########             Matchnum:                    1
##########                Cloud:                    1
##########        Electrostatic:           -39.530590
##########                 Gist:             0.000000
##########        Van der Waals:           -37.034145
##########  Ligand Polar Desolv:            15.985420
########## Ligand Apolar Desolv:            -3.246667
##########      Internal Energy:             0.000000
##########      Receptor Energy:             0.000000
########## Receptor Desolvation:             0.000000
########## Receptor Hydrophobic:             0.000000
##########         Total Energy:           -63.825981
##########        Ligand Charge:             1.000000
##########            Arbitrary:    +999.9990
##########        Ligand Energy:             0.000000

@<TRIPOS>MOLECULE
 ZINC000439472462      none
   49    51     0     0     0



@<TRIPOS>ATOM
      1 C1        -10.7101    23.6199   -17.0597 C.3        1  LIG1  -0.1000
      2 C2        -11.1485    22.4883   -16.1661 C.2        1  LIG1   0.1000
      3 C3        -12.1141    21.5833   -16.4435 C.2        1  LIG1  -0.2700
      4 C4        -12.2077    20.7046   -15.3517 C.2        1  LIG1   0.2800
      5 N1        -13.0874    19.6222   -15.2405 N.am       1  LIG1  -0.6000
      6 C5        -13.9481    19.3478   -16.2407 C.2        1  LIG1   0.5200
      7 O1        -13.9601    20.0398   -17.2379 O.2        1  LIG1  -0.4900
      8 C6        -14.8869    18.1924   -16.1222 C.2        1  LIG1   0.5300
      9 O2        -14.8749    17.5006   -15.1252 O.2        1  LIG1  -0.4900
     10 N2        -15.7476    17.9182   -17.1225 N.am       1  LIG1  -0.7100
     11 C7        -16.6687    16.7850   -17.0062 C.3        1  LIG1   0.1300
     12 H1        -16.2260    16.0000   -16.3928 H          1  LIG1   0.1400
     13 C8        -18.0133    17.2464   -16.3989 C.3        1  LIG1  -0.1600
     14 C9        -18.9020    17.4631   -17.6495 C.3        1  LIG1  -0.0100
     15 N3        -18.4900    16.3599   -18.5546 N.4        1  LIG1  -0.3900
     16 H2        -18.9401    15.4991   -18.2814 H          1  LIG1   0.4300
     17 C10       -18.8302    16.6912   -19.9446 C.3        1  LIG1   0.0500
     18 C11       -20.3185    16.8963   -20.0623 C.ar       1  LIG1  -0.1600
     19 C12       -20.8236    17.7661   -21.0106 C.ar       1  LIG1  -0.0900
     20 C13       -22.1888    17.9541   -21.1185 C.ar       1  LIG1  -0.1100
     21 C14       -23.0490    17.2720   -20.2783 C.ar       1  LIG1  -0.0800
     22 C15       -22.5440    16.4016   -19.3307 C.ar       1  LIG1  -0.1100
     23 C16       -21.1789    16.2103   -19.2256 C.ar       1  LIG1  -0.0900
     24 C17       -17.0217    16.2377   -18.4017 C.3        1  LIG1  -0.0200
     25 N4        -11.3251    21.0764   -14.4538 N.2        1  LIG1  -0.3100
     26 N5        -10.6428    22.1948   -14.9494 N.pl3      1  LIG1  -0.3600
     27 C18        -9.5736    22.9245   -14.2631 C.3        1  LIG1   0.1000
     28 H3        -11.2984    23.6070   -17.9772 H          1  LIG1   0.0900
     29 H4        -10.8609    24.5686   -16.5448 H          1  LIG1   0.0900
     30 H5         -9.6543    23.5024   -17.3034 H          1  LIG1   0.0800
     31 H6        -12.7079    21.5430   -17.3446 H          1  LIG1   0.1700
     32 H7        -13.0779    19.0692   -14.4436 H          1  LIG1   0.4300
     33 H8        -15.7572    18.4712   -17.9194 H          1  LIG1   0.4200
     34 H9        -18.4328    16.4717   -15.7571 H          1  LIG1   0.1100
     35 H10       -17.8883    18.1789   -15.8484 H          1  LIG1   0.1200
     36 H11       -19.9574    17.3750   -17.3914 H          1  LIG1   0.1400
     37 H12       -18.6959    18.4317   -18.1048 H          1  LIG1   0.1300
     38 H13       -18.3132    17.6051   -20.2373 H          1  LIG1   0.1400
     39 H14       -18.5232    15.8748   -20.5984 H          1  LIG1   0.1400
     40 H15       -20.1515    18.2989   -21.6670 H          1  LIG1   0.1300
     41 H16       -22.5834    18.6342   -21.8589 H          1  LIG1   0.1400
     42 H17       -24.1156    17.4195   -20.3622 H          1  LIG1   0.1400
     43 H18       -23.2160    15.8690   -18.6741 H          1  LIG1   0.1400
     44 H19       -20.7845    15.5303   -18.4852 H          1  LIG1   0.1300
     45 H20       -16.5183    16.8257   -19.1691 H          1  LIG1   0.1400
     46 H21       -16.7261    15.1913   -18.4782 H          1  LIG1   0.1500
     47 H22        -9.3772    22.4579   -13.2978 H          1  LIG1   0.0800
     48 H23        -8.6685    22.8987   -14.8700 H          1  LIG1   0.0900
     49 H24        -9.8797    23.9595   -14.1110 H          1  LIG1   0.0900
@<TRIPOS>BOND
     1    1    2 1
     2    1   28 1
     3    1   29 1
     4    1   30 1
     5    2   26 1
     6    2    3 2
     7    3    4 1
     8    3   31 1
     9    4    5 1
    10    4   25 2
    11    5    6 am
    12    5   32 1
    13    6    7 2
    14    6    8 1
    15    8    9 2
    16    8   10 am
    17   10   11 1
    18   10   33 1
    19   11   12 1
    20   11   24 1
    21   11   13 1
    22   13   14 1
    23   13   34 1
    24   13   35 1
    25   14   15 1
    26   14   36 1
    27   14   37 1
    28   15   16 1
    29   15   17 1
    30   15   24 1
    31   17   18 1
    32   17   38 1
    33   17   39 1
    34   18   23 ar
    35   18   19 ar
    36   19   20 ar
    37   19   40 1
    38   20   21 ar
    39   20   41 1
    40   21   22 ar
    41   21   42 1
    42   22   23 ar
    43   22   43 1
    44   23   44 1
    45   24   45 1
    46   24   46 1
    47   25   26 1
    48   26   27 1
    49   27   47 1
    50   27   48 1
    51   27   49 1
##########                 Name:     ZINC000663884953
##########          Protonation:                 none
##########               SMILES:   O=C(COC1=CC=CC=C1)N1CC[C@H](NC2=C3C=CNC3=CC=[NH+]2)C1
##########            Long Name:   NO_LONG_NAME
##########          FlexRecCode: 1
##########               Number:                 9843
##########   Ligand Source File: /nfs/db/export/3D/EF/ADRO/EFADRO.xbso.db2.gz
##########                 Rank:                    1
##########               Setnum:                  146
##########             Matchnum:                    1
##########                Cloud:                    1
##########        Electrostatic:           -42.677036
##########                 Gist:             0.000000
##########        Van der Waals:           -35.303593
##########  Ligand Polar Desolv:            19.537247
########## Ligand Apolar Desolv:            -5.359189
##########      Internal Energy:             0.000000
##########      Receptor Energy:             0.000000
########## Receptor Desolvation:             0.000000
########## Receptor Hydrophobic:             0.000000
##########         Total Energy:           -63.802570
##########        Ligand Charge:             1.000000
##########            Arbitrary:    +999.9990
##########        Ligand Energy:             0.000000

@<TRIPOS>MOLECULE
 ZINC000663884953      none
   46    49     0     0     0



@<TRIPOS>ATOM
      1 O1        -16.7132    19.0164   -20.7294 O.2        1  LIG1  -0.5000
      2 C1        -17.6567    18.5766   -20.1069 C.2        1  LIG1   0.5400
      3 C2        -19.0511    18.7004   -20.6650 C.3        1  LIG1   0.0500
      4 O2        -19.6130    17.3978   -20.8363 O.3        1  LIG1  -0.2900
      5 C3        -20.9621    17.2870   -20.7153 C.ar       1  LIG1   0.1200
      6 C4        -21.5232    16.1080   -20.2467 C.ar       1  LIG1  -0.2100
      7 C5        -22.8948    15.9981   -20.1242 C.ar       1  LIG1  -0.0800
      8 C6        -23.7082    17.0618   -20.4684 C.ar       1  LIG1  -0.1500
      9 C7        -23.1515    18.2378   -20.9360 C.ar       1  LIG1  -0.0800
     10 C8        -21.7801    18.3549   -21.0545 C.ar       1  LIG1  -0.1400
     11 N1        -17.4576    17.9722   -18.9189 N.am       1  LIG1  -0.6200
     12 C9        -18.4129    17.9427   -17.8018 C.3        1  LIG1   0.0900
     13 C10       -17.7673    17.1179   -16.6684 C.3        1  LIG1  -0.1300
     14 C11       -16.7210    16.2533   -17.4203 C.3        1  LIG1   0.1000
     15 H1        -17.1856    15.3684   -17.8551 H          1  LIG1   0.1100
     16 N2        -15.6142    15.8810   -16.5357 N.pl3      1  LIG1  -0.6800
     17 C12       -15.6818    14.7089   -15.7954 C.ar       1  LIG1   0.5100
     18 C13       -14.6266    14.3541   -14.9444 C.ar       1  LIG1  -0.2000
     19 C14       -13.3389    14.9506   -14.5908 C.2        1  LIG1  -0.1500
     20 C15       -12.7566    14.1272   -13.7038 C.2        1  LIG1   0.0700
     21 N3        -13.5710    13.0516   -13.4629 N.pl3      1  LIG1  -0.5500
     22 C16       -14.7186    13.1604   -14.2039 C.ar       1  LIG1   0.1900
     23 C17       -15.8663    12.3797   -14.3527 C.ar       1  LIG1  -0.1400
     24 C18       -16.8493    12.7978   -15.2034 C.ar       1  LIG1   0.1200
     25 N4        -16.7451    13.9268   -15.8873 N.ar       1  LIG1  -0.5200
     26 H2        -17.4682    14.1852   -16.4799 H          1  LIG1   0.4400
     27 C19       -16.2482    17.2258   -18.5265 C.3        1  LIG1   0.0900
     28 H3        -19.6691    19.2748   -19.9747 H          1  LIG1   0.1000
     29 H4        -19.0131    19.2092   -21.6282 H          1  LIG1   0.1000
     30 H5        -20.8882    15.2766   -19.9784 H          1  LIG1   0.1200
     31 H6        -23.3321    15.0804   -19.7594 H          1  LIG1   0.1300
     32 H7        -24.7804    16.9738   -20.3721 H          1  LIG1   0.1300
     33 H8        -23.7890    19.0672   -21.2045 H          1  LIG1   0.1300
     34 H9        -21.3457    19.2737   -21.4199 H          1  LIG1   0.1300
     35 H10       -18.6101    18.9574   -17.4557 H          1  LIG1   0.0900
     36 H11       -19.3420    17.4705   -18.1208 H          1  LIG1   0.0900
     37 H12       -17.2793    17.7716   -15.9454 H          1  LIG1   0.1000
     38 H13       -18.5095    16.4868   -16.1797 H          1  LIG1   0.1100
     39 H14       -14.8341    16.4535   -16.4677 H          1  LIG1   0.4400
     40 H15       -12.9333    15.8765   -14.9712 H          1  LIG1   0.1700
     41 H16       -11.7906    14.2886   -13.2487 H          1  LIG1   0.2000
     42 H17       -13.3654    12.3216   -12.8581 H          1  LIG1   0.4400
     43 H18       -15.9752    11.4567   -13.8026 H          1  LIG1   0.1800
     44 H19       -17.7370    12.1936   -15.3185 H          1  LIG1   0.2100
     45 H20       -15.8494    16.6700   -19.3751 H          1  LIG1   0.0900
     46 H21       -15.4968    17.9108   -18.1337 H          1  LIG1   0.0900
@<TRIPOS>BOND
     1    1    2 2
     2    2    3 1
     3    2   11 am
     4    3    4 1
     5    3   28 1
     6    3   29 1
     7    4    5 1
     8    5   10 ar
     9    5    6 ar
    10    6    7 ar
    11    6   30 1
    12    7    8 ar
    13    7   31 1
    14    8    9 ar
    15    8   32 1
    16    9   10 ar
    17    9   33 1
    18   10   34 1
    19   11   27 1
    20   11   12 1
    21   12   13 1
    22   12   35 1
    23   12   36 1
    24   13   14 1
    25   13   37 1
    26   13   38 1
    27   14   15 1
    28   14   16 1
    29   14   27 1
    30   16   17 1
    31   16   39 1
    32   17   25 ar
    33   17   18 ar
    34   18   22 ar
    35   18   19 1
    36   19   20 2
    37   19   40 1
    38   20   21 1
    39   20   41 1
    40   21   22 1
    41   21   42 1
    42   22   23 ar
    43   23   24 ar
    44   23   43 1
    45   24   25 ar
    46   24   44 1
    47   25   26 1
    48   27   45 1
    49   27   46 1
##########                 Name:     ZINC000352657648
##########          Protonation:                 none
##########               SMILES:   CCOC(=O)C1=C(C[N@H+](C)[C@H]2CCC[C@H]2O)OC(C2=CC=CC=C2)=N1
##########            Long Name:   NO_LONG_NAME
##########          FlexRecCode: 1
##########               Number:                13090
##########   Ligand Source File: /nfs/db/export/3D/EF/ADRO/EFADRO.xbyd.db2.gz
##########                 Rank:                    1
##########               Setnum:                   11
##########             Matchnum:                    1
##########                Cloud:                    1
##########        Electrostatic:           -42.158432
##########                 Gist:             0.000000
##########        Van der Waals:           -33.486008
##########  Ligand Polar Desolv:             9.756267
########## Ligand Apolar Desolv:            -3.669311
##########      Internal Energy:             0.000000
##########      Receptor Energy:             0.000000
########## Receptor Desolvation:             0.000000
########## Receptor Hydrophobic:             0.000000
##########         Total Energy:           -69.557487
##########        Ligand Charge:             1.000000
##########            Arbitrary:    +999.9990
##########        Ligand Energy:             0.000000

@<TRIPOS>MOLECULE
 ZINC000352657648      none
   50    52     0     0     0



@<TRIPOS>ATOM
      1 C1        -12.6407    20.7107   -17.1481 C.3        1  LIG1  -0.1600
      2 C2        -13.2665    20.4773   -15.7716 C.3        1  LIG1   0.0600
      3 O1        -13.6410    19.0805   -15.6409 O.3        1  LIG1  -0.3200
      4 C3        -14.8835    18.7405   -16.0368 C.2        1  LIG1   0.5500
      5 O2        -15.6337    19.5882   -16.4793 O.2        1  LIG1  -0.5100
      6 C4        -15.3326    17.3412   -15.9334 C.2        1  LIG1   0.0100
      7 C5        -16.2314    16.7183   -16.7472 C.2        1  LIG1  -0.0400
      8 C6        -16.9513    17.3314   -17.9207 C.3        1  LIG1   0.0900
      9 N1        -17.8318    16.3278   -18.5335 N.4        1  LIG1  -0.3700
     10 H1        -18.2737    15.7811   -17.8097 H          1  LIG1   0.4300
     11 C7        -17.0395    15.4445   -19.3994 C.3        1  LIG1  -0.0600
     12 C8        -18.8614    17.0036   -19.3343 C.3        1  LIG1   0.0300
     13 H2        -18.4007    17.5995   -20.1222 H          1  LIG1   0.1600
     14 C9        -19.8423    15.9693   -19.9405 C.3        1  LIG1  -0.1400
     15 C10       -21.1163    16.8134   -20.1926 C.3        1  LIG1  -0.1200
     16 C11       -21.1848    17.7661   -18.9812 C.3        1  LIG1  -0.1600
     17 C12       -19.7489    17.8898   -18.4361 C.3        1  LIG1   0.0800
     18 H3        -19.4185    18.9274   -18.4862 H          1  LIG1   0.0900
     19 O3        -19.6960    17.4243   -17.0861 O.3        1  LIG1  -0.5800
     20 O4        -16.3545    15.4561   -16.3069 O.3        1  LIG1  -0.1700
     21 C13       -15.5478    15.3025   -15.2420 C.2        1  LIG1   0.3100
     22 C14       -15.3861    14.0578   -14.4600 C.ar       1  LIG1  -0.0600
     23 C15       -14.5186    14.0246   -13.3674 C.ar       1  LIG1  -0.0800
     24 C16       -14.3724    12.8603   -12.6417 C.ar       1  LIG1  -0.1200
     25 C17       -15.0832    11.7273   -12.9955 C.ar       1  LIG1  -0.0800
     26 C18       -15.9448    11.7537   -14.0777 C.ar       1  LIG1  -0.1200
     27 C19       -16.1043    12.9133   -14.8082 C.ar       1  LIG1  -0.0600
     28 N2        -14.9239    16.4300   -15.0128 N.2        1  LIG1  -0.4400
     29 H4        -12.3595    21.7593   -17.2463 H          1  LIG1   0.0900
     30 H5        -11.7544    20.0853   -17.2551 H          1  LIG1   0.0700
     31 H6        -13.3623    20.4539   -17.9237 H          1  LIG1   0.0700
     32 H7        -12.5449    20.7341   -14.9961 H          1  LIG1   0.0800
     33 H8        -14.1529    21.1027   -15.6648 H          1  LIG1   0.0800
     34 H9        -17.5473    18.1778   -17.5794 H          1  LIG1   0.1600
     35 H10       -16.2227    17.6728   -18.6559 H          1  LIG1   0.1700
     36 H11       -17.6928    14.6999   -19.8541 H          1  LIG1   0.1300
     37 H12       -16.5622    16.0350   -20.1816 H          1  LIG1   0.1400
     38 H13       -16.2755    14.9433   -18.8053 H          1  LIG1   0.1100
     39 H14       -19.4523    15.5696   -20.8764 H          1  LIG1   0.1000
     40 H15       -20.0446    15.1669   -19.2311 H          1  LIG1   0.0900
     41 H16       -21.0213    17.3800   -21.1188 H          1  LIG1   0.0900
     42 H17       -21.9980    16.1731   -20.2246 H          1  LIG1   0.0900
     43 H18       -21.5484    18.7443   -19.2956 H          1  LIG1   0.0900
     44 H19       -21.8416    17.3513   -18.2166 H          1  LIG1   0.0900
     45 H20       -20.0013    16.5138   -16.9717 H          1  LIG1   0.4100
     46 H21       -13.9627    14.9082   -13.0906 H          1  LIG1   0.1300
     47 H22       -13.7015    12.8333   -11.7959 H          1  LIG1   0.1400
     48 H23       -14.9648    10.8182   -12.4247 H          1  LIG1   0.1400
     49 H24       -16.4966    10.8658   -14.3490 H          1  LIG1   0.1400
     50 H25       -16.7775    12.9326   -15.6525 H          1  LIG1   0.1400
@<TRIPOS>BOND
     1    1    2 1
     2    1   29 1
     3    1   30 1
     4    1   31 1
     5    2    3 1
     6    2   32 1
     7    2   33 1
     8    3    4 1
     9    4    5 2
    10    4    6 1
    11    6   28 1
    12    6    7 2
    13    7    8 1
    14    7   20 1
    15    8    9 1
    16    8   34 1
    17    8   35 1
    18    9   10 1
    19    9   11 1
    20    9   12 1
    21   11   36 1
    22   11   37 1
    23   11   38 1
    24   12   13 1
    25   12   17 1
    26   12   14 1
    27   14   15 1
    28   14   39 1
    29   14   40 1
    30   15   16 1
    31   15   41 1
    32   15   42 1
    33   16   17 1
    34   16   43 1
    35   16   44 1
    36   17   18 1
    37   17   19 1
    38   19   45 1
    39   20   21 1
    40   21   22 1
    41   21   28 2
    42   22   27 ar
    43   22   23 ar
    44   23   24 ar
    45   23   46 1
    46   24   25 ar
    47   24   47 1
    48   25   26 ar
    49   25   48 1
    50   26   27 ar
    51   26   49 1
    52   27   50 1
##########                 Name:     ZINC000327960743
##########          Protonation:                 none
##########               SMILES:   Cc1ccnc(C[NH2+][C@H](Cc2ccccc2)c2ccccc2)c1
##########            Long Name:   NO_LONG_NAME
##########          FlexRecCode: 1
##########               Number:                 7466
##########   Ligand Source File: /nfs/db/export/3D/DI/ADRO/DIADRO.xfv.db2.gz
##########                 Rank:                    1
##########               Setnum:                   19
##########             Matchnum:                    1
##########                Cloud:                    1
##########        Electrostatic:           -39.185314
##########                 Gist:             0.000000
##########        Van der Waals:           -29.884224
##########  Ligand Polar Desolv:            11.812886
########## Ligand Apolar Desolv:            -6.366607
##########      Internal Energy:             0.000000
##########      Receptor Energy:             0.000000
########## Receptor Desolvation:             0.000000
########## Receptor Hydrophobic:             0.000000
##########         Total Energy:           -63.623253
##########        Ligand Charge:             1.000000
##########            Arbitrary:    +999.9990
##########        Ligand Energy:             0.000000

@<TRIPOS>MOLECULE
 ZINC000327960743      none
   46    48     0     0     0



@<TRIPOS>ATOM
      1 C1        -16.1422    11.6540   -14.5064 C.3        1  LIG1  -0.1300
      2 C2        -15.7958    13.0889   -14.8098 C.ar       1  LIG1  -0.0300
      3 C3        -15.1276    13.8695   -13.8793 C.ar       1  LIG1  -0.1400
      4 C4        -14.8267    15.1817   -14.1930 C.ar       1  LIG1   0.1200
      5 N1        -15.1677    15.6915   -15.3601 N.ar       1  LIG1  -0.4700
      6 C5        -15.8040    14.9784   -16.2691 C.ar       1  LIG1   0.0500
      7 C6        -16.1710    15.6091   -17.5877 C.3        1  LIG1   0.0600
      8 N2        -17.5033    16.2191   -17.4848 N.4        1  LIG1  -0.5100
      9 H1        -18.1811    15.5091   -17.2513 H          1  LIG1   0.4200
     10 H2        -17.4949    16.9259   -16.7647 H          1  LIG1   0.4300
     11 C7        -17.8610    16.8339   -18.7701 C.3        1  LIG1   0.0900
     12 H3        -17.5350    16.1877   -19.5851 H          1  LIG1   0.1500
     13 C8        -17.1741    18.1955   -18.8929 C.3        1  LIG1  -0.0900
     14 C9        -17.1212    18.6026   -20.3428 C.ar       1  LIG1  -0.1300
     15 C10       -16.0399    18.2394   -21.1237 C.ar       1  LIG1  -0.1400
     16 C11       -15.9913    18.6128   -22.4537 C.ar       1  LIG1  -0.1100
     17 C12       -17.0243    19.3489   -23.0032 C.ar       1  LIG1  -0.1000
     18 C13       -18.1062    19.7113   -22.2225 C.ar       1  LIG1  -0.1100
     19 C14       -18.1567    19.3343   -20.8936 C.ar       1  LIG1  -0.1000
     20 C15       -19.3552    17.0169   -18.8409 C.ar       1  LIG1  -0.1400
     21 C16       -20.0005    16.9675   -20.0623 C.ar       1  LIG1  -0.1200
     22 C17       -21.3711    17.1354   -20.1272 C.ar       1  LIG1  -0.1000
     23 C18       -22.0964    17.3522   -18.9705 C.ar       1  LIG1  -0.0900
     24 C19       -21.4512    17.4008   -17.7490 C.ar       1  LIG1  -0.1000
     25 C20       -20.0811    17.2286   -17.6836 C.ar       1  LIG1  -0.0900
     26 C21       -16.1329    13.6581   -16.0286 C.ar       1  LIG1  -0.1500
     27 H4        -15.7942    11.4000   -13.5050 H          1  LIG1   0.0900
     28 H5        -17.2229    11.5220   -14.5596 H          1  LIG1   0.0800
     29 H6        -15.6602    11.0019   -15.2347 H          1  LIG1   0.0800
     30 H7        -14.8459    13.4579   -12.9215 H          1  LIG1   0.1500
     31 H8        -14.3067    15.7967   -13.4734 H          1  LIG1   0.1700
     32 H9        -15.4387    16.3761   -17.8398 H          1  LIG1   0.1500
     33 H10       -16.1800    14.8456   -18.3655 H          1  LIG1   0.1500
     34 H11       -17.7365    18.9384   -18.3271 H          1  LIG1   0.1200
     35 H12       -16.1607    18.1282   -18.4971 H          1  LIG1   0.1000
     36 H13       -15.2328    17.6643   -20.6943 H          1  LIG1   0.1200
     37 H14       -15.1462    18.3298   -23.0636 H          1  LIG1   0.1300
     38 H15       -16.9861    19.6412   -24.0422 H          1  LIG1   0.1300
     39 H16       -18.9131    20.2868   -22.6517 H          1  LIG1   0.1300
     40 H17       -19.0018    19.6174   -20.2836 H          1  LIG1   0.1300
     41 H18       -19.4339    16.7981   -20.9660 H          1  LIG1   0.1200
     42 H19       -21.8752    17.0974   -21.0815 H          1  LIG1   0.1400
     43 H20       -23.1671    17.4841   -19.0213 H          1  LIG1   0.1400
     44 H21       -22.0177    17.5705   -16.8453 H          1  LIG1   0.1400
     45 H22       -19.5770    17.2666   -16.7293 H          1  LIG1   0.1400
     46 H23       -16.6540    13.0793   -16.7769 H          1  LIG1   0.1400
@<TRIPOS>BOND
     1    1    2 1
     2    1   27 1
     3    1   28 1
     4    1   29 1
     5    2   26 ar
     6    2    3 ar
     7    3    4 ar
     8    3   30 1
     9    4    5 ar
    10    4   31 1
    11    5    6 ar
    12    6    7 1
    13    6   26 ar
    14    7    8 1
    15    7   32 1
    16    7   33 1
    17    8    9 1
    18    8   10 1
    19    8   11 1
    20   11   12 1
    21   11   13 1
    22   11   20 1
    23   13   14 1
    24   13   34 1
    25   13   35 1
    26   14   19 ar
    27   14   15 ar
    28   15   16 ar
    29   15   36 1
    30   16   17 ar
    31   16   37 1
    32   17   18 ar
    33   17   38 1
    34   18   19 ar
    35   18   39 1
    36   19   40 1
    37   20   25 ar
    38   20   21 ar
    39   21   22 ar
    40   21   41 1
    41   22   23 ar
    42   22   42 1
    43   23   24 ar
    44   23   43 1
    45   24   25 ar
    46   24   44 1
    47   25   45 1
    48   26   46 1
##########                 Name:     ZINC000420362429
##########          Protonation:                 none
##########               SMILES:   NC[C@@H]([NH2+]CC(=O)NCC1=CC=C(Cl)C=C1)C1CCCCC1
##########            Long Name:   NO_LONG_NAME
##########          FlexRecCode: 1
##########               Number:                 6202
##########   Ligand Source File: /nfs/db/export/3D/DE/ADMO/DEADMO.xapf.db2.gz
##########                 Rank:                    1
##########               Setnum:                   48
##########             Matchnum:                    1
##########                Cloud:                    1
##########        Electrostatic:           -35.931355
##########                 Gist:             0.000000
##########        Van der Waals:           -29.860416
##########  Ligand Polar Desolv:             7.517815
########## Ligand Apolar Desolv:            -4.083080
##########      Internal Energy:             0.000000
##########      Receptor Energy:             0.000000
########## Receptor Desolvation:             0.000000
########## Receptor Hydrophobic:             0.000000
##########         Total Energy:           -62.357037
##########        Ligand Charge:             1.000000
##########            Arbitrary:    +999.9990
##########        Ligand Energy:             0.000000

@<TRIPOS>MOLECULE
 ZINC000420362429      none
   49    50     0     0     0



@<TRIPOS>ATOM
      1 N1        -16.6018    18.1833   -20.8544 N.3        1  LIG1  -0.8700
      2 C1        -18.0349    18.4614   -20.6907 C.3        1  LIG1   0.0300
      3 C2        -18.7162    17.2585   -20.0352 C.3        1  LIG1   0.0300
      4 H1        -18.3055    16.3378   -20.4498 H          1  LIG1   0.1400
      5 N2        -18.4792    17.2913   -18.5857 N.4        1  LIG1  -0.4900
      6 H2        -18.5486    18.2421   -18.2551 H          1  LIG1   0.4400
      7 H3        -19.1692    16.7218   -18.1192 H          1  LIG1   0.4300
      8 C3        -17.1368    16.7692   -18.2971 C.3        1  LIG1  -0.0400
      9 C4        -16.8938    16.8028   -16.8102 C.2        1  LIG1   0.5000
     10 O1        -17.4280    17.6510   -16.1275 O.2        1  LIG1  -0.5200
     11 N3        -16.0829    15.8903   -16.2391 N.am       1  LIG1  -0.7000
     12 C5        -15.8468    15.9230   -14.7936 C.3        1  LIG1   0.1600
     13 C6        -15.5812    14.5253   -14.2963 C.ar       1  LIG1  -0.1200
     14 C7        -14.7656    14.3261   -13.1981 C.ar       1  LIG1  -0.0800
     15 C8        -14.5217    13.0446   -12.7416 C.ar       1  LIG1  -0.1100
     16 C9        -15.0941    11.9610   -13.3838 C.ar       1  LIG1  -0.0200
     17 Cl1       -14.7887    10.3511   -12.8105 Cl         1  LIG1  -0.0500
     18 C10       -15.9103    12.1611   -14.4829 C.ar       1  LIG1  -0.1100
     19 C11       -16.1579    13.4435   -14.9351 C.ar       1  LIG1  -0.0800
     20 C12       -20.2208    17.3137   -20.3073 C.3        1  LIG1  -0.1100
     21 C13       -20.9022    16.1108   -19.6518 C.3        1  LIG1  -0.1300
     22 C14       -22.4067    16.1660   -19.9238 C.3        1  LIG1  -0.1200
     23 C15       -22.9831    17.4584   -19.3418 C.3        1  LIG1  -0.1300
     24 C16       -22.3018    18.6613   -19.9975 C.3        1  LIG1  -0.1200
     25 C17       -20.7972    18.6059   -19.7254 C.3        1  LIG1  -0.1100
     26 H4        -16.4341    17.1929   -20.9494 H          1  LIG1   0.3500
     27 H5        -16.2223    18.6912   -21.6395 H          1  LIG1   0.3700
     28 H6        -18.1647    19.3408   -20.0599 H          1  LIG1   0.1000
     29 H7        -18.4832    18.6453   -21.6671 H          1  LIG1   0.0800
     30 H8        -17.0619    15.7421   -18.6543 H          1  LIG1   0.1600
     31 H9        -16.3915    17.3845   -18.8011 H          1  LIG1   0.1600
     32 H10       -15.6557    15.2120   -16.7851 H          1  LIG1   0.4100
     33 H11       -14.9842    16.5545   -14.5805 H          1  LIG1   0.0900
     34 H12       -16.7255    16.3266   -14.2909 H          1  LIG1   0.0900
     35 H13       -14.3187    15.1720   -12.6970 H          1  LIG1   0.1300
     36 H14       -13.8842    12.8889   -11.8837 H          1  LIG1   0.1400
     37 H15       -16.3571    11.3156   -14.9848 H          1  LIG1   0.1400
     38 H16       -16.7954    13.5998   -15.7928 H          1  LIG1   0.1400
     39 H17       -20.3967    17.2893   -21.3827 H          1  LIG1   0.1000
     40 H18       -20.4916    15.1901   -20.0663 H          1  LIG1   0.0600
     41 H19       -20.7263    16.1351   -18.5763 H          1  LIG1   0.0800
     42 H20       -22.5827    16.1417   -20.9992 H          1  LIG1   0.0700
     43 H21       -22.8921    15.3091   -19.4568 H          1  LIG1   0.0700
     44 H22       -24.0550    17.4976   -19.5357 H          1  LIG1   0.0700
     45 H23       -22.8073    17.4826   -18.2664 H          1  LIG1   0.0700
     46 H24       -22.4778    18.6369   -21.0728 H          1  LIG1   0.0700
     47 H25       -22.7124    19.5819   -19.5830 H          1  LIG1   0.0700
     48 H26       -20.6214    18.6304   -18.6499 H          1  LIG1   0.0800
     49 H27       -20.3119    19.4629   -20.1924 H          1  LIG1   0.0700
@<TRIPOS>BOND
     1    1    2 1
     2    1   26 1
     3    1   27 1
     4    2    3 1
     5    2   28 1
     6    2   29 1
     7    3    4 1
     8    3    5 1
     9    3   20 1
    10    5    6 1
    11    5    7 1
    12    5    8 1
    13    8    9 1
    14    8   30 1
    15    8   31 1
    16    9   10 2
    17    9   11 am
    18   11   12 1
    19   11   32 1
    20   12   13 1
    21   12   33 1
    22   12   34 1
    23   13   19 ar
    24   13   14 ar
    25   14   15 ar
    26   14   35 1
    27   15   16 ar
    28   15   36 1
    29   16   17 1
    30   16   18 ar
    31   18   19 ar
    32   18   37 1
    33   19   38 1
    34   20   25 1
    35   20   21 1
    36   20   39 1
    37   21   22 1
    38   21   40 1
    39   21   41 1
    40   22   23 1
    41   22   42 1
    42   22   43 1
    43   23   24 1
    44   23   44 1
    45   23   45 1
    46   24   25 1
    47   24   46 1
    48   24   47 1
    49   25   48 1
    50   25   49 1
##########                 Name:     ZINC000562219770
##########          Protonation:                 none
##########               SMILES:   CC1=CC=C(CCC(=O)N[C@@H](C)C[N@H+](C)C(C)C)C(C)=C1
##########            Long Name:   NO_LONG_NAME
##########          FlexRecCode: 1
##########               Number:                 6959
##########   Ligand Source File: /nfs/db/export/3D/CG/ADRO/CGADRO.xavz.db2.gz
##########                 Rank:                    1
##########               Setnum:                   57
##########             Matchnum:                    1
##########                Cloud:                    1
##########        Electrostatic:           -37.801952
##########                 Gist:             0.000000
##########        Van der Waals:           -31.186396
##########  Ligand Polar Desolv:            12.787157
########## Ligand Apolar Desolv:            -6.569533
##########      Internal Energy:             0.000000
##########      Receptor Energy:             0.000000
########## Receptor Desolvation:             0.000000
########## Receptor Hydrophobic:             0.000000
##########         Total Energy:           -62.770725
##########        Ligand Charge:             1.000000
##########            Arbitrary:    +999.9990
##########        Ligand Energy:             0.000000

@<TRIPOS>MOLECULE
 ZINC000562219770      none
   52    52     0     0     0



@<TRIPOS>ATOM
      1 C1        -14.8597    10.5792   -12.2707 C.3        1  LIG1  -0.1200
      2 C2        -15.0766    11.7347   -13.2135 C.ar       1  LIG1  -0.0800
      3 C3        -15.9566    11.6075   -14.2715 C.ar       1  LIG1  -0.1200
      4 C4        -16.1557    12.6675   -15.1365 C.ar       1  LIG1  -0.1100
      5 C5        -15.4747    13.8546   -14.9428 C.ar       1  LIG1  -0.1000
      6 C6        -15.6914    15.0098   -15.8860 C.3        1  LIG1  -0.0600
      7 C7        -16.8388    15.8808   -15.3706 C.3        1  LIG1  -0.1400
      8 C8        -17.0555    17.0361   -16.3136 C.2        1  LIG1   0.5100
      9 O1        -16.9410    18.1752   -15.9135 O.2        1  LIG1  -0.5100
     10 N1        -17.3766    16.8034   -17.6017 N.am       1  LIG1  -0.7500
     11 C9        -17.5874    17.9265   -18.5184 C.3        1  LIG1   0.1200
     12 H1        -17.9675    18.7833   -17.9620 H          1  LIG1   0.1100
     13 C10       -16.2603    18.2982   -19.1831 C.3        1  LIG1  -0.1700
     14 C11       -18.6008    17.5253   -19.5921 C.3        1  LIG1  -0.0200
     15 N2        -19.6747    16.7318   -18.9797 N.4        1  LIG1  -0.3800
     16 H2        -19.2801    16.1018   -18.2974 H          1  LIG1   0.4200
     17 C12       -20.3652    15.9572   -20.0195 C.3        1  LIG1  -0.0800
     18 C13       -20.6325    17.6298   -18.3208 C.3        1  LIG1   0.0200
     19 C14       -21.5777    18.2237   -19.3671 C.3        1  LIG1  -0.1800
     20 C15       -21.4433    16.8427   -17.2895 C.3        1  LIG1  -0.1900
     21 C16       -14.5954    13.9824   -13.8838 C.ar       1  LIG1  -0.0800
     22 C17       -13.8534    15.2769   -13.6724 C.3        1  LIG1  -0.1200
     23 C18       -14.3994    12.9239   -13.0168 C.ar       1  LIG1  -0.1200
     24 H3        -15.4740     9.7348   -12.5834 H          1  LIG1   0.0700
     25 H4        -13.8090    10.2898   -12.2864 H          1  LIG1   0.0700
     26 H5        -15.1393    10.8773   -11.2601 H          1  LIG1   0.0700
     27 H6        -16.4887    10.6799   -14.4228 H          1  LIG1   0.1200
     28 H7        -16.8429    12.5678   -15.9636 H          1  LIG1   0.1200
     29 H8        -14.7808    15.6062   -15.9453 H          1  LIG1   0.0800
     30 H9        -15.9412    14.6285   -16.8762 H          1  LIG1   0.0800
     31 H10       -17.7493    15.2844   -15.3113 H          1  LIG1   0.1000
     32 H11       -16.5892    16.2619   -14.3804 H          1  LIG1   0.1000
     33 H12       -17.4682    15.8924   -17.9218 H          1  LIG1   0.4100
     34 H13       -16.4170    19.1338   -19.8652 H          1  LIG1   0.0700
     35 H14       -15.5383    18.5840   -18.4182 H          1  LIG1   0.0800
     36 H15       -15.8802    17.4413   -19.7395 H          1  LIG1   0.0800
     37 H16       -19.0245    18.4216   -20.0451 H          1  LIG1   0.1500
     38 H17       -18.1024    16.9317   -20.3585 H          1  LIG1   0.1400
     39 H18       -21.1621    15.3684   -19.5652 H          1  LIG1   0.1400
     40 H19       -20.7913    16.6377   -20.7567 H          1  LIG1   0.1300
     41 H20       -19.6545    15.2908   -20.5082 H          1  LIG1   0.1200
     42 H21       -20.0922    18.4339   -17.8212 H          1  LIG1   0.1400
     43 H22       -22.2884    18.8901   -18.8782 H          1  LIG1   0.1100
     44 H23       -20.9999    18.7846   -20.1018 H          1  LIG1   0.0800
     45 H24       -22.1180    17.4197   -19.8667 H          1  LIG1   0.0800
     46 H25       -22.1541    17.5090   -16.8006 H          1  LIG1   0.0800
     47 H26       -21.9837    16.0386   -17.7890 H          1  LIG1   0.1100
     48 H27       -20.7700    16.4195   -16.5440 H          1  LIG1   0.0800
     49 H28       -13.2119    15.1890   -12.7956 H          1  LIG1   0.0700
     50 H29       -13.2429    15.4930   -14.5491 H          1  LIG1   0.0700
     51 H30       -14.5688    16.0849   -13.5196 H          1  LIG1   0.0600
     52 H31       -13.7124    13.0237   -12.1893 H          1  LIG1   0.1200
@<TRIPOS>BOND
     1    1    2 1
     2    1   24 1
     3    1   25 1
     4    1   26 1
     5    2   23 ar
     6    2    3 ar
     7    3    4 ar
     8    3   27 1
     9    4    5 ar
    10    4   28 1
    11    5    6 1
    12    5   21 ar
    13    6    7 1
    14    6   29 1
    15    6   30 1
    16    7    8 1
    17    7   31 1
    18    7   32 1
    19    8    9 2
    20    8   10 am
    21   10   11 1
    22   10   33 1
    23   11   12 1
    24   11   13 1
    25   11   14 1
    26   13   34 1
    27   13   35 1
    28   13   36 1
    29   14   15 1
    30   14   37 1
    31   14   38 1
    32   15   16 1
    33   15   17 1
    34   15   18 1
    35   17   39 1
    36   17   40 1
    37   17   41 1
    38   18   19 1
    39   18   20 1
    40   18   42 1
    41   19   43 1
    42   19   44 1
    43   19   45 1
    44   20   46 1
    45   20   47 1
    46   20   48 1
    47   21   22 1
    48   21   23 ar
    49   22   49 1
    50   22   50 1
    51   22   51 1
    52   23   52 1
##########                 Name:     ZINC000463041628
##########          Protonation:                 none
##########               SMILES:   FC1=CC=CC=C1C1C[NH+](CC2=CC=CC(C3=CC=NC=C3)=C2)C1
##########            Long Name:   NO_LONG_NAME
##########          FlexRecCode: 1
##########               Number:                 2739
##########   Ligand Source File: /nfs/db/export/3D/DI/ADRO/DIADRO.xbd.db2.gz
##########                 Rank:                    1
##########               Setnum:                  157
##########             Matchnum:                    1
##########                Cloud:                    1
##########        Electrostatic:           -35.166039
##########                 Gist:             0.000000
##########        Van der Waals:           -35.177536
##########  Ligand Polar Desolv:            15.033785
########## Ligand Apolar Desolv:            -7.203434
##########      Internal Energy:             0.000000
##########      Receptor Energy:             0.000000
########## Receptor Desolvation:             0.000000
########## Receptor Hydrophobic:             0.000000
##########         Total Energy:           -62.513222
##########        Ligand Charge:             1.000000
##########            Arbitrary:    +999.9990
##########        Ligand Energy:             0.000000

@<TRIPOS>MOLECULE
 ZINC000463041628      none
   44    47     0     0     0



@<TRIPOS>ATOM
      1 F1        -23.0721    16.4818   -18.8216 F          1  LIG1  -0.1300
      2 C1        -22.5385    17.4485   -19.6000 C.ar       1  LIG1   0.1200
      3 C2        -23.3639    18.2663   -20.3525 C.ar       1  LIG1  -0.1400
      4 C3        -22.8169    19.2550   -21.1487 C.ar       1  LIG1  -0.0700
      5 C4        -21.4461    19.4274   -21.1934 C.ar       1  LIG1  -0.1200
      6 C5        -20.6208    18.6113   -20.4421 C.ar       1  LIG1  -0.0900
      7 C6        -21.1656    17.6260   -19.6412 C.ar       1  LIG1  -0.1400
      8 C7        -20.2658    16.7366   -18.8225 C.3        1  LIG1  -0.0800
      9 C8        -18.9417    16.3818   -19.5228 C.3        1  LIG1   0.0100
     10 N1        -18.3011    16.6039   -18.2077 N.4        1  LIG1  -0.4100
     11 H1        -18.2471    15.7652   -17.6494 H          1  LIG1   0.4400
     12 C9        -17.0107    17.2985   -18.3088 C.3        1  LIG1   0.0400
     13 C10       -16.2114    17.0584   -17.0540 C.ar       1  LIG1  -0.1600
     14 C11       -15.5633    18.1124   -16.4361 C.ar       1  LIG1  -0.0900
     15 C12       -14.8281    17.8992   -15.2837 C.ar       1  LIG1  -0.1100
     16 C13       -14.7375    16.6322   -14.7446 C.ar       1  LIG1  -0.0700
     17 C14       -15.3884    15.5663   -15.3630 C.ar       1  LIG1  -0.0400
     18 C15       -15.2950    14.2019   -14.7878 C.ar       1  LIG1  -0.0200
     19 C16       -16.3346    13.2818   -14.9499 C.ar       1  LIG1  -0.1700
     20 C17       -16.2066    12.0234   -14.3985 C.ar       1  LIG1   0.1100
     21 N2        -15.1227    11.6854   -13.7268 N.ar       1  LIG1  -0.4800
     22 C18       -14.1193    12.5236   -13.5512 C.ar       1  LIG1   0.1100
     23 C19       -14.1626    13.7997   -14.0742 C.ar       1  LIG1  -0.1600
     24 C20       -16.1321    15.7878   -16.5203 C.ar       1  LIG1  -0.0800
     25 C21       -19.4057    17.4995   -17.7989 C.3        1  LIG1   0.0100
     26 H2        -24.4349    18.1315   -20.3181 H          1  LIG1   0.1500
     27 H3        -23.4606    19.8928   -21.7361 H          1  LIG1   0.1400
     28 H4        -21.0195    20.1999   -21.8160 H          1  LIG1   0.1400
     29 H5        -19.5499    18.7468   -20.4780 H          1  LIG1   0.1300
     30 H6        -20.7866    15.8758   -18.4031 H          1  LIG1   0.1400
     31 H7        -18.8903    15.3490   -19.8675 H          1  LIG1   0.1500
     32 H8        -18.6414    17.1012   -20.2847 H          1  LIG1   0.1500
     33 H9        -16.4598    16.9183   -19.1690 H          1  LIG1   0.1400
     34 H10       -17.1823    18.3680   -18.4312 H          1  LIG1   0.1400
     35 H11       -15.6310    19.1055   -16.8550 H          1  LIG1   0.1300
     36 H12       -14.3240    18.7259   -14.8053 H          1  LIG1   0.1400
     37 H13       -14.1627    16.4667   -13.8453 H          1  LIG1   0.1400
     38 H14       -17.2249    13.5518   -15.4981 H          1  LIG1   0.1300
     39 H15       -17.0047    11.3057   -14.5181 H          1  LIG1   0.1600
     40 H16       -13.2503    12.2052   -12.9944 H          1  LIG1   0.1600
     41 H17       -13.3375    14.4807   -13.9264 H          1  LIG1   0.1400
     42 H18       -16.6389    14.9655   -17.0034 H          1  LIG1   0.1300
     43 H19       -19.2411    18.5457   -18.0565 H          1  LIG1   0.1500
     44 H20       -19.7250    17.3597   -16.7661 H          1  LIG1   0.1400
@<TRIPOS>BOND
     1    1    2 1
     2    2    7 ar
     3    2    3 ar
     4    3    4 ar
     5    3   26 1
     6    4    5 ar
     7    4   27 1
     8    5    6 ar
     9    5   28 1
    10    6    7 ar
    11    6   29 1
    12    7    8 1
    13    8   25 1
    14    8    9 1
    15    8   30 1
    16    9   10 1
    17    9   31 1
    18    9   32 1
    19   10   11 1
    20   10   12 1
    21   10   25 1
    22   12   13 1
    23   12   33 1
    24   12   34 1
    25   13   24 ar
    26   13   14 ar
    27   14   15 ar
    28   14   35 1
    29   15   16 ar
    30   15   36 1
    31   16   17 ar
    32   16   37 1
    33   17   18 1
    34   17   24 ar
    35   18   23 ar
    36   18   19 ar
    37   19   20 ar
    38   19   38 1
    39   20   21 ar
    40   20   39 1
    41   21   22 ar
    42   22   23 ar
    43   22   40 1
    44   23   41 1
    45   24   42 1
    46   25   43 1
    47   25   44 1
##########                 Name:     ZINC000293317201
##########          Protonation:                 none
##########               SMILES:   CC1=C(NC(=O)[C@H](C)[N@H+]2CCC[C@H](CO)CC2)C=CC=C1[N+](=O)[O-]
##########            Long Name:   NO_LONG_NAME
##########          FlexRecCode: 1
##########               Number:                12324
##########   Ligand Source File: /nfs/db/export/3D/EE/ADMO/EEADMO.xbbd.db2.gz
##########                 Rank:                    1
##########               Setnum:                   84
##########             Matchnum:                    1
##########                Cloud:                    1
##########        Electrostatic:           -46.674839
##########                 Gist:             0.000000
##########        Van der Waals:           -32.854652
##########  Ligand Polar Desolv:            20.159687
########## Ligand Apolar Desolv:            -3.625679
##########      Internal Energy:             0.000000
##########      Receptor Energy:             0.000000
########## Receptor Desolvation:             0.000000
########## Receptor Hydrophobic:             0.000000
##########         Total Energy:           -62.995487
##########        Ligand Charge:             1.000000
##########            Arbitrary:    +999.9990
##########        Ligand Energy:             0.000000

@<TRIPOS>MOLECULE
 ZINC000293317201      none
   50    51     0     0     0



@<TRIPOS>ATOM
      1 C1        -16.4684    12.3477   -15.6968 C.3        1  LIG1  -0.1300
      2 C2        -15.6967    13.5414   -15.1961 C.ar       1  LIG1  -0.0500
      3 C3        -15.7766    14.7530   -15.8695 C.ar       1  LIG1   0.1300
      4 N1        -16.5735    14.8678   -17.0140 N.am       1  LIG1  -0.6400
      5 C4        -16.2366    15.7400   -17.9849 C.2        1  LIG1   0.5100
      6 O1        -15.2428    16.4250   -17.8667 O.2        1  LIG1  -0.5000
      7 C5        -17.0949    15.8635   -19.2175 C.3        1  LIG1   0.0100
      8 H1        -17.1359    14.9022   -19.7295 H          1  LIG1   0.1700
      9 C6        -16.4949    16.9146   -20.1535 C.3        1  LIG1  -0.1800
     10 N2        -18.4522    16.2703   -18.8301 N.4        1  LIG1  -0.3600
     11 H2        -18.8530    15.5805   -18.2125 H          1  LIG1   0.4300
     12 C7        -18.4088    17.5542   -18.1683 C.3        1  LIG1  -0.0200
     13 C8        -19.4367    17.6283   -17.0261 C.3        1  LIG1  -0.1400
     14 C9        -20.7867    16.9847   -17.3986 C.3        1  LIG1  -0.1400
     15 C10       -21.2423    17.3217   -18.7943 C.3        1  LIG1  -0.1000
     16 H3        -20.8477    18.2968   -19.0805 H          1  LIG1   0.0900
     17 C11       -22.7712    17.3560   -18.8388 C.3        1  LIG1   0.0800
     18 O2        -23.2873    16.0767   -18.4658 O.3        1  LIG1  -0.5700
     19 C12       -20.7193    16.2443   -19.7749 C.3        1  LIG1  -0.1500
     20 C13       -19.2928    16.4138   -20.0316 C.3        1  LIG1   0.0000
     21 C14       -15.0642    15.8509   -15.4045 C.ar       1  LIG1  -0.0800
     22 C15       -14.2791    15.7344   -14.2745 C.ar       1  LIG1  -0.0900
     23 C16       -14.2013    14.5260   -13.6062 C.ar       1  LIG1  -0.0600
     24 C17       -14.9137    13.4328   -14.0634 C.ar       1  LIG1  -0.0200
     25 N3        -14.8280    12.1416   -13.3449 N.pl3      1  LIG1   0.0200
     26 O3        -15.4477    11.1754   -13.7524 O.2        1  LIG1  -0.1400
     27 O4        -14.1376    12.0451   -12.3460 O.2        1  LIG1  -0.1400
     28 H4        -17.0232    12.6238   -16.5936 H          1  LIG1   0.1000
     29 H5        -15.7755    11.5400   -15.9325 H          1  LIG1   0.0700
     30 H6        -17.1647    12.0161   -14.9266 H          1  LIG1   0.0900
     31 H7        -17.3682    14.3199   -17.1086 H          1  LIG1   0.4200
     32 H8        -17.1156    17.0040   -21.0449 H          1  LIG1   0.1000
     33 H9        -16.4538    17.8760   -19.6414 H          1  LIG1   0.0900
     34 H10       -15.4877    16.6127   -20.4408 H          1  LIG1   0.1100
     35 H11       -17.4103    17.7123   -17.7608 H          1  LIG1   0.1300
     36 H12       -18.6251    18.3377   -18.8945 H          1  LIG1   0.1300
     37 H13       -19.0312    17.1157   -16.1538 H          1  LIG1   0.1000
     38 H14       -19.6042    18.6746   -16.7705 H          1  LIG1   0.1100
     39 H15       -20.6936    15.9019   -17.3131 H          1  LIG1   0.0600
     40 H16       -21.5434    17.3251   -16.6919 H          1  LIG1   0.1000
     41 H17       -23.1380    18.1122   -18.1448 H          1  LIG1   0.0500
     42 H18       -23.0998    17.5999   -19.8490 H          1  LIG1   0.0500
     43 H19       -23.0339    15.7945   -17.5762 H          1  LIG1   0.3900
     44 H20       -20.8895    15.2571   -19.3452 H          1  LIG1   0.0900
     45 H21       -21.2640    16.3226   -20.7157 H          1  LIG1   0.1200
     46 H22       -19.1301    17.4064   -20.4518 H          1  LIG1   0.1300
     47 H23       -18.9808    15.6721   -20.7669 H          1  LIG1   0.1300
     48 H24       -15.1239    16.7945   -15.9263 H          1  LIG1   0.1700
     49 H25       -13.7249    16.5878   -13.9124 H          1  LIG1   0.1600
     50 H26       -13.5860    14.4373   -12.7231 H          1  LIG1   0.1600
@<TRIPOS>BOND
     1    1    2 1
     2    1   28 1
     3    1   29 1
     4    1   30 1
     5    2   24 ar
     6    2    3 ar
     7    3    4 1
     8    3   21 ar
     9    4    5 am
    10    4   31 1
    11    5    6 2
    12    5    7 1
    13    7    8 1
    14    7    9 1
    15    7   10 1
    16    9   32 1
    17    9   33 1
    18    9   34 1
    19   10   11 1
    20   10   20 1
    21   10   12 1
    22   12   13 1
    23   12   35 1
    24   12   36 1
    25   13   14 1
    26   13   37 1
    27   13   38 1
    28   14   15 1
    29   14   39 1
    30   14   40 1
    31   15   16 1
    32   15   17 1
    33   15   19 1
    34   17   18 1
    35   17   41 1
    36   17   42 1
    37   18   43 1
    38   19   20 1
    39   19   44 1
    40   19   45 1
    41   20   46 1
    42   20   47 1
    43   21   22 ar
    44   21   48 1
    45   22   23 ar
    46   22   49 1
    47   23   24 ar
    48   23   50 1
    49   24   25 1
    50   25   26 2
    51   25   27 2
##########                 Name:     ZINC000419381593
##########          Protonation:                 none
##########               SMILES:   O=C(C[N@@H+]1CCSC[C@H]1C1CCC1)NC[C@@H]1CC2=CC=CC=C2O1
##########            Long Name:   NO_LONG_NAME
##########          FlexRecCode: 1
##########               Number:                 3717
##########   Ligand Source File: /nfs/db/export/3D/EE/ADRO/EEADRO.xcgy.db2.gz
##########                 Rank:                    1
##########               Setnum:                   85
##########             Matchnum:                    1
##########                Cloud:                    1
##########        Electrostatic:           -33.819778
##########                 Gist:             0.000000
##########        Van der Waals:           -33.845703
##########  Ligand Polar Desolv:             8.048037
########## Ligand Apolar Desolv:            -4.974830
##########      Internal Energy:             0.000000
##########      Receptor Energy:             0.000000
########## Receptor Desolvation:             0.000000
########## Receptor Hydrophobic:             0.000000
##########         Total Energy:           -64.592278
##########        Ligand Charge:             1.000000
##########            Arbitrary:    +999.9990
##########        Ligand Energy:             0.000000

@<TRIPOS>MOLECULE
 ZINC000419381593      none
   51    54     0     0     0



@<TRIPOS>ATOM
      1 O1        -17.3760    18.8356   -16.7811 O.2        1  LIG1  -0.5300
      2 C1        -17.1650    17.9045   -17.5290 C.2        1  LIG1   0.5000
      3 C2        -17.6366    17.9651   -18.9591 C.3        1  LIG1  -0.0400
      4 N1        -19.0973    18.1188   -18.9869 N.4        1  LIG1  -0.3700
      5 H1        -19.3494    18.9717   -18.5104 H          1  LIG1   0.4300
      6 C3        -19.7130    16.9833   -18.2970 C.3        1  LIG1  -0.0200
      7 C4        -21.1849    17.2895   -17.9996 C.3        1  LIG1  -0.1200
      8 S1        -22.0578    17.5083   -19.5807 S.3        1  LIG1  -0.1900
      9 C5        -20.9893    18.7085   -20.4337 C.3        1  LIG1  -0.1200
     10 C6        -19.5457    18.1957   -20.3788 C.3        1  LIG1   0.0400
     11 H2        -19.4958    17.2056   -20.8319 H          1  LIG1   0.1500
     12 C7        -18.6362    19.1541   -21.1502 C.3        1  LIG1  -0.1500
     13 C8        -17.3302    18.5052   -21.6381 C.3        1  LIG1  -0.1500
     14 C9        -17.5137    19.3010   -22.9411 C.3        1  LIG1  -0.1400
     15 C10       -19.0200    19.3096   -22.6312 C.3        1  LIG1  -0.1200
     16 N2        -16.5039    16.8181   -17.0829 N.am       1  LIG1  -0.7000
     17 C11       -16.0401    16.7618   -15.6945 C.3        1  LIG1   0.1200
     18 C12       -15.3253    15.4315   -15.4490 C.3        1  LIG1   0.0700
     19 H3        -14.4664    15.3282   -16.1121 H          1  LIG1   0.1000
     20 C13       -16.3009    14.2441   -15.6271 C.3        1  LIG1  -0.1000
     21 C14       -15.8265    13.2849   -14.5527 C.ar       1  LIG1  -0.1700
     22 C15       -16.0656    11.9459   -14.3376 C.ar       1  LIG1  -0.0700
     23 C16       -15.4850    11.3046   -13.2573 C.ar       1  LIG1  -0.1400
     24 C17       -14.6661    12.0129   -12.3977 C.ar       1  LIG1  -0.0800
     25 C18       -14.4280    13.3554   -12.6094 C.ar       1  LIG1  -0.1300
     26 C19       -15.0112    14.0089   -13.6918 C.ar       1  LIG1   0.1000
     27 O2        -14.9237    15.3153   -14.0735 O.3        1  LIG1  -0.3000
     28 H4        -17.1722    18.8151   -19.4591 H          1  LIG1   0.1700
     29 H5        -17.3583    17.0450   -19.4728 H          1  LIG1   0.1600
     30 H6        -19.6478    16.0974   -18.9286 H          1  LIG1   0.1400
     31 H7        -19.1851    16.7989   -17.3613 H          1  LIG1   0.1600
     32 H8        -21.6276    16.4597   -17.4484 H          1  LIG1   0.1500
     33 H9        -21.2573    18.2042   -17.4114 H          1  LIG1   0.1100
     34 H10       -21.3041    18.8060   -21.4726 H          1  LIG1   0.1500
     35 H11       -21.0545    19.6759   -19.9356 H          1  LIG1   0.1100
     36 H12       -18.4879    20.1033   -20.6354 H          1  LIG1   0.1200
     37 H13       -16.4531    18.8038   -21.0639 H          1  LIG1   0.0800
     38 H14       -17.4022    17.4259   -21.7719 H          1  LIG1   0.1000
     39 H15       -17.0572    20.2906   -22.9164 H          1  LIG1   0.0900
     40 H16       -17.2557    18.7370   -23.8373 H          1  LIG1   0.0800
     41 H17       -19.5542    18.4502   -23.0363 H          1  LIG1   0.1000
     42 H18       -19.5072    20.2578   -22.8587 H          1  LIG1   0.0900
     43 H19       -16.3354    16.0734   -17.6812 H          1  LIG1   0.4200
     44 H20       -15.3500    17.5848   -15.5083 H          1  LIG1   0.0900
     45 H21       -16.8943    16.8446   -15.0224 H          1  LIG1   0.1000
     46 H22       -17.3298    14.5546   -15.4454 H          1  LIG1   0.1000
     47 H23       -16.1985    13.8009   -16.6177 H          1  LIG1   0.1000
     48 H24       -16.7063    11.3966   -15.0114 H          1  LIG1   0.1300
     49 H25       -15.6712    10.2547   -13.0864 H          1  LIG1   0.1300
     50 H26       -14.2106    11.5129   -11.5559 H          1  LIG1   0.1400
     51 H27       -13.7870    13.9014   -11.9330 H          1  LIG1   0.1300
@<TRIPOS>BOND
     1    1    2 2
     2    2    3 1
     3    2   16 am
     4    3    4 1
     5    3   28 1
     6    3   29 1
     7    4    5 1
     8    4   10 1
     9    4    6 1
    10    6    7 1
    11    6   30 1
    12    6   31 1
    13    7    8 1
    14    7   32 1
    15    7   33 1
    16    8    9 1
    17    9   10 1
    18    9   34 1
    19    9   35 1
    20   10   11 1
    21   10   12 1
    22   12   15 1
    23   12   13 1
    24   12   36 1
    25   13   14 1
    26   13   37 1
    27   13   38 1
    28   14   15 1
    29   14   39 1
    30   14   40 1
    31   15   41 1
    32   15   42 1
    33   16   17 1
    34   16   43 1
    35   17   18 1
    36   17   44 1
    37   17   45 1
    38   18   19 1
    39   18   27 1
    40   18   20 1
    41   20   21 1
    42   20   46 1
    43   20   47 1
    44   21   26 ar
    45   21   22 ar
    46   22   23 ar
    47   22   48 1
    48   23   24 ar
    49   23   49 1
    50   24   25 ar
    51   24   50 1
    52   25   26 ar
    53   25   51 1
    54   26   27 1
##########                 Name:     ZINC000592182663
##########          Protonation:                 none
##########               SMILES:   C[C@@H]1CC2(C[N@H+]1CC(=O)NC1=CC=C(C#N)C(Cl)=C1)CCOCC2
##########            Long Name:   NO_LONG_NAME
##########          FlexRecCode: 1
##########               Number:                11896
##########   Ligand Source File: /nfs/db/export/3D/EG/EDMO/EGEDMO.xbr.db2.gz
##########                 Rank:                    1
##########               Setnum:                   47
##########             Matchnum:                    1
##########                Cloud:                    1
##########        Electrostatic:           -50.897530
##########                 Gist:             0.000000
##########        Van der Waals:           -29.274700
##########  Ligand Polar Desolv:            20.629772
########## Ligand Apolar Desolv:            -4.687922
##########      Internal Energy:             0.000000
##########      Receptor Energy:             0.000000
########## Receptor Desolvation:             0.000000
########## Receptor Hydrophobic:             0.000000
##########         Total Energy:           -64.230377
##########        Ligand Charge:             1.000000
##########            Arbitrary:    +999.9990
##########        Ligand Energy:             0.000000

@<TRIPOS>MOLECULE
 ZINC000592182663      none
   47    49     0     0     0



@<TRIPOS>ATOM
      1 C1        -18.1041    17.9576   -16.4463 C.3        1  LIG1  -0.1800
      2 C2        -18.7393    17.8647   -17.8352 C.3        1  LIG1   0.0300
      3 H1        -18.2320    18.5299   -18.5339 H          1  LIG1   0.1500
      4 C3        -20.2529    18.1938   -17.7676 C.3        1  LIG1  -0.1300
      5 C4        -20.8164    17.4651   -19.0030 C.3        1  LIG1  -0.0700
      6 C5        -19.7901    16.3757   -19.3445 C.3        1  LIG1  -0.0100
      7 N1        -18.7123    16.4644   -18.3312 N.4        1  LIG1  -0.3800
      8 H2        -18.8952    15.8257   -17.5718 H          1  LIG1   0.4300
      9 C6        -17.4128    16.1621   -18.9460 C.3        1  LIG1  -0.0300
     10 C7        -16.4052    15.8583   -17.8674 C.2        1  LIG1   0.5000
     11 O1        -15.4077    16.5398   -17.7602 O.2        1  LIG1  -0.5000
     12 N2        -16.6124    14.8294   -17.0221 N.am       1  LIG1  -0.6500
     13 C8        -15.6795    14.5480   -16.0233 C.ar       1  LIG1   0.1600
     14 C9        -15.5078    13.2396   -15.5830 C.ar       1  LIG1  -0.1100
     15 C10       -14.5887    12.9572   -14.5975 C.ar       1  LIG1  -0.0400
     16 C11       -13.8266    13.9873   -14.0387 C.ar       1  LIG1  -0.0100
     17 C12       -12.8695    13.6974   -13.0138 C.1        1  LIG1   0.2300
     18 N3        -12.1102    13.4674   -12.2008 N.1        1  LIG1  -0.3700
     19 C13       -14.0013    15.3022   -14.4839 C.ar       1  LIG1   0.0200
     20 Cl1       -13.0578    16.5861   -13.7947 Cl         1  LIG1  -0.0300
     21 C14       -14.9197    15.5756   -15.4748 C.ar       1  LIG1  -0.1200
     22 C15       -22.1663    16.8362   -18.6690 C.3        1  LIG1  -0.1500
     23 C16       -22.7400    16.1765   -19.9270 C.3        1  LIG1   0.0500
     24 O2        -22.8368    17.1494   -20.9694 O.3        1  LIG1  -0.3700
     25 C17       -21.5844    17.7149   -21.3614 C.3        1  LIG1   0.0500
     26 C18       -20.9599    18.4422   -20.1665 C.3        1  LIG1  -0.1500
     27 H3        -18.6245    17.2862   -15.7632 H          1  LIG1   0.0800
     28 H4        -17.0540    17.6719   -16.5072 H          1  LIG1   0.1100
     29 H5        -18.1815    18.9810   -16.0791 H          1  LIG1   0.0800
     30 H6        -20.6933    17.7989   -16.8521 H          1  LIG1   0.1000
     31 H7        -20.4181    19.2684   -17.8444 H          1  LIG1   0.1200
     32 H8        -20.2615    15.3937   -19.3036 H          1  LIG1   0.1500
     33 H9        -19.3782    16.5503   -20.3384 H          1  LIG1   0.1300
     34 H10       -17.5138    15.2979   -19.6026 H          1  LIG1   0.1600
     35 H11       -17.0764    17.0215   -19.5259 H          1  LIG1   0.1700
     36 H12       -17.4102    14.2842   -17.1080 H          1  LIG1   0.4300
     37 H13       -16.0966    12.4439   -16.0149 H          1  LIG1   0.1500
     38 H14       -14.4569    11.9411   -14.2562 H          1  LIG1   0.1500
     39 H15       -15.0556    16.5901   -15.8194 H          1  LIG1   0.1500
     40 H16       -22.0351    16.0842   -17.8910 H          1  LIG1   0.0800
     41 H17       -22.8510    17.6085   -18.3183 H          1  LIG1   0.0900
     42 H18       -22.0830    15.3669   -20.2449 H          1  LIG1   0.0500
     43 H19       -23.7305    15.7772   -19.7088 H          1  LIG1   0.1100
     44 H20       -20.9153    16.9215   -21.6945 H          1  LIG1   0.0500
     45 H21       -21.7436    18.4225   -22.1752 H          1  LIG1   0.1100
     46 H22       -21.6018    19.2713   -19.8687 H          1  LIG1   0.1000
     47 H23       -19.9773    18.8234   -20.4451 H          1  LIG1   0.0800
@<TRIPOS>BOND
     1    1    2 1
     2    1   27 1
     3    1   28 1
     4    1   29 1
     5    2    3 1
     6    2    7 1
     7    2    4 1
     8    4    5 1
     9    4   30 1
    10    4   31 1
    11    5   26 1
    12    5    6 1
    13    5   22 1
    14    6    7 1
    15    6   32 1
    16    6   33 1
    17    7    8 1
    18    7    9 1
    19    9   10 1
    20    9   34 1
    21    9   35 1
    22   10   11 2
    23   10   12 am
    24   12   13 1
    25   12   36 1
    26   13   21 ar
    27   13   14 ar
    28   14   15 ar
    29   14   37 1
    30   15   16 ar
    31   15   38 1
    32   16   17 1
    33   16   19 ar
    34   17   18 3
    35   19   20 1
    36   19   21 ar
    37   21   39 1
    38   22   23 1
    39   22   40 1
    40   22   41 1
    41   23   24 1
    42   23   42 1
    43   23   43 1
    44   24   25 1
    45   25   26 1
    46   25   44 1
    47   25   45 1
    48   26   46 1
    49   26   47 1
##########                 Name:     ZINC000345283372
##########          Protonation:                 none
##########               SMILES:   CC1=C([C@@H](CO)[NH2+][C@@H](C)C2=C(C)N(C(C)C)N=C2)SC=C1
##########            Long Name:   NO_LONG_NAME
##########          FlexRecCode: 1
##########               Number:                 7070
##########   Ligand Source File: /nfs/db/export/3D/DH/ADRO/DHADRO.xgq.db2.gz
##########                 Rank:                    1
##########               Setnum:                   45
##########             Matchnum:                    1
##########                Cloud:                    1
##########        Electrostatic:           -47.583385
##########                 Gist:             0.000000
##########        Van der Waals:           -25.971642
##########  Ligand Polar Desolv:            13.399937
########## Ligand Apolar Desolv:            -2.693134
##########      Internal Energy:             0.000000
##########      Receptor Energy:             0.000000
########## Receptor Desolvation:             0.000000
########## Receptor Hydrophobic:             0.000000
##########         Total Energy:           -62.848221
##########        Ligand Charge:             1.000000
##########            Arbitrary:    +999.9990
##########        Ligand Energy:             0.000000

@<TRIPOS>MOLECULE
 ZINC000345283372      none
   47    48     0     0     0



@<TRIPOS>ATOM
      1 C1        -21.6595    19.1010   -20.2834 C.3        1  LIG1  -0.1100
      2 C2        -22.0194    17.6737   -19.9606 C.2        1  LIG1  -0.0400
      3 C3        -21.1672    16.8349   -19.3696 C.2        1  LIG1  -0.2800
      4 C4        -19.7613    17.1780   -18.9491 C.3        1  LIG1   0.1200
      5 H1        -19.3587    17.9409   -19.6154 H          1  LIG1   0.1600
      6 C5        -19.7736    17.7090   -17.5143 C.3        1  LIG1   0.0600
      7 O1        -20.3014    16.7090   -16.6406 O.3        1  LIG1  -0.5700
      8 N1        -18.9218    15.9746   -19.0187 N.4        1  LIG1  -0.5000
      9 H2        -19.0762    15.4088   -18.1975 H          1  LIG1   0.4300
     10 H3        -19.1622    15.4440   -19.8426 H          1  LIG1   0.4300
     11 C6        -17.5078    16.3670   -19.0842 C.3        1  LIG1   0.1200
     12 H4        -17.2482    16.9401   -18.1940 H          1  LIG1   0.1400
     13 C7        -16.6333    15.1137   -19.1566 C.3        1  LIG1  -0.1800
     14 C8        -17.2772    17.2119   -20.3105 C.2        1  LIG1  -0.3100
     15 C9        -16.3510    18.1896   -20.4413 C.2        1  LIG1   0.1400
     16 C10       -15.3666    18.6275   -19.3874 C.3        1  LIG1  -0.1100
     17 N2        -16.4665    18.7023   -21.6842 N.pl3      1  LIG1  -0.3400
     18 C11       -15.6561    19.7842   -22.2491 C.3        1  LIG1   0.1500
     19 C12       -15.5330    19.5927   -23.7620 C.3        1  LIG1  -0.1600
     20 C13       -16.3257    21.1286   -21.9578 C.3        1  LIG1  -0.1600
     21 N3        -17.4979    18.0170   -22.3391 N.2        1  LIG1  -0.2600
     22 C14       -17.9790    17.1200   -21.5170 C.2        1  LIG1   0.0400
     23 S1        -21.9353    15.2671   -19.1557 S.3        1  LIG1   0.1500
     24 C15       -23.4144    15.8565   -19.9031 C.2        1  LIG1  -0.1700
     25 C16       -23.2615    17.1355   -20.2497 C.2        1  LIG1  -0.1400
     26 H5        -20.6355    19.2982   -19.9662 H          1  LIG1   0.0900
     27 H6        -21.7446    19.2631   -21.3579 H          1  LIG1   0.0700
     28 H7        -22.3382    19.7742   -19.7596 H          1  LIG1   0.0800
     29 H8        -18.7566    17.9572   -17.2101 H          1  LIG1   0.0800
     30 H9        -20.3963    18.6021   -17.4626 H          1  LIG1   0.1000
     31 H10       -19.7960    15.8847   -16.6353 H          1  LIG1   0.4100
     32 H11       -15.5842    15.4049   -19.2053 H          1  LIG1   0.1000
     33 H12       -16.8001    14.5025   -18.2696 H          1  LIG1   0.0800
     34 H13       -16.8929    14.5405   -20.0468 H          1  LIG1   0.0800
     35 H14       -14.7482    19.4344   -19.7807 H          1  LIG1   0.0900
     36 H15       -15.9074    18.9793   -18.5089 H          1  LIG1   0.0800
     37 H16       -14.7323    17.7855   -19.1105 H          1  LIG1   0.0900
     38 H17       -14.6635    19.7676   -21.7989 H          1  LIG1   0.1100
     39 H18       -14.9300    20.3975   -24.1824 H          1  LIG1   0.0600
     40 H19       -15.0559    18.6347   -23.9694 H          1  LIG1   0.0700
     41 H20       -16.5257    19.6091   -24.2122 H          1  LIG1   0.0800
     42 H21       -15.7228    21.9334   -22.3780 H          1  LIG1   0.0600
     43 H22       -17.3184    21.1451   -22.4079 H          1  LIG1   0.0800
     44 H23       -16.4133    21.2650   -20.8799 H          1  LIG1   0.0700
     45 H24       -18.7842    16.4326   -21.7305 H          1  LIG1   0.1800
     46 H25       -24.3109    15.2734   -20.0539 H          1  LIG1   0.1800
     47 H26       -24.0449    17.7056   -20.7271 H          1  LIG1   0.1500
@<TRIPOS>BOND
     1    1    2 1
     2    1   26 1
     3    1   27 1
     4    1   28 1
     5    2   25 1
     6    2    3 2
     7    3    4 1
     8    3   23 1
     9    4    5 1
    10    4    6 1
    11    4    8 1
    12    6    7 1
    13    6   29 1
    14    6   30 1
    15    7   31 1
    16    8    9 1
    17    8   10 1
    18    8   11 1
    19   11   12 1
    20   11   13 1
    21   11   14 1
    22   13   32 1
    23   13   33 1
    24   13   34 1
    25   14   22 1
    26   14   15 2
    27   15   16 1
    28   15   17 1
    29   16   35 1
    30   16   36 1
    31   16   37 1
    32   17   18 1
    33   17   21 1
    34   18   19 1
    35   18   20 1
    36   18   38 1
    37   19   39 1
    38   19   40 1
    39   19   41 1
    40   20   42 1
    41   20   43 1
    42   20   44 1
    43   21   22 2
    44   22   45 1
    45   23   24 1
    46   24   25 2
    47   24   46 1
    48   25   47 1
##########                 Name:     ZINC000600958132
##########          Protonation:                 none
##########               SMILES:   C[N@@H+]1CCCC[C@H]1C(=O)NCCC1=CSC2=CC=CC=C12
##########            Long Name:   NO_LONG_NAME
##########          FlexRecCode: 1
##########               Number:                 7535
##########   Ligand Source File: /nfs/db/export/3D/DG/ADRO/DGADRO.xaps.db2.gz
##########                 Rank:                    1
##########               Setnum:                   48
##########             Matchnum:                    1
##########                Cloud:                    1
##########        Electrostatic:           -46.195358
##########                 Gist:             0.000000
##########        Van der Waals:           -27.579273
##########  Ligand Polar Desolv:            15.996894
########## Ligand Apolar Desolv:            -5.639258
##########      Internal Energy:             0.000000
##########      Receptor Energy:             0.000000
########## Receptor Desolvation:             0.000000
########## Receptor Hydrophobic:             0.000000
##########         Total Energy:           -63.416992
##########        Ligand Charge:             1.000000
##########            Arbitrary:    +999.9990
##########        Ligand Energy:             0.000000

@<TRIPOS>MOLECULE
 ZINC000600958132      none
   44    46     0     0     0



@<TRIPOS>ATOM
      1 C1        -17.4893    15.9968   -19.6595 C.3        1  LIG1  -0.0600
      2 N1        -18.7745    16.2659   -19.0008 N.4        1  LIG1  -0.3700
      3 H1        -19.0526    15.4572   -18.4654 H          1  LIG1   0.4300
      4 C2        -19.7935    16.5515   -20.0180 C.3        1  LIG1  -0.0100
      5 C3        -21.1516    16.7527   -19.3423 C.3        1  LIG1  -0.1500
      6 C4        -21.0601    17.9281   -18.3649 C.3        1  LIG1  -0.1400
      7 C5        -19.9438    17.6526   -17.3534 C.3        1  LIG1  -0.1400
      8 C6        -18.6310    17.4191   -18.1041 C.3        1  LIG1   0.0100
      9 H2        -18.3838    18.3060   -18.6875 H          1  LIG1   0.1600
     10 C7        -17.5283    17.1467   -17.1137 C.2        1  LIG1   0.5000
     11 O1        -16.5607    17.8765   -17.0676 O.2        1  LIG1  -0.5200
     12 N2        -17.6173    16.0921   -16.2793 N.am       1  LIG1  -0.7000
     13 C8        -16.5453    15.8272   -15.3166 C.3        1  LIG1   0.1200
     14 C9        -15.5019    14.9080   -15.9552 C.3        1  LIG1  -0.0700
     15 C10       -14.3992    14.6355   -14.9650 C.2        1  LIG1  -0.0900
     16 C11       -13.3286    15.3985   -14.8677 C.2        1  LIG1  -0.1800
     17 S1        -12.2384    14.8161   -13.6245 S.3        1  LIG1   0.1100
     18 C12       -13.3013    13.4720   -13.2272 C.ar       1  LIG1  -0.1400
     19 C13       -13.1655    12.4556   -12.2769 C.ar       1  LIG1  -0.0800
     20 C14       -14.1431    11.4976   -12.1448 C.ar       1  LIG1  -0.1000
     21 C15       -15.2700    11.5340   -12.9545 C.ar       1  LIG1  -0.1100
     22 C16       -15.4220    12.5146   -13.8865 C.ar       1  LIG1  -0.0800
     23 C17       -14.4379    13.5146   -14.0397 C.ar       1  LIG1  -0.0700
     24 H3        -17.1878    16.8698   -20.2383 H          1  LIG1   0.1300
     25 H4        -16.7324    15.7819   -18.9052 H          1  LIG1   0.1300
     26 H5        -17.5941    15.1389   -20.3237 H          1  LIG1   0.1200
     27 H6        -19.5206    17.4564   -20.5610 H          1  LIG1   0.1300
     28 H7        -19.8551    15.7155   -20.7146 H          1  LIG1   0.1400
     29 H8        -21.9065    16.9664   -20.0990 H          1  LIG1   0.1200
     30 H9        -21.4256    15.8482   -18.7992 H          1  LIG1   0.0900
     31 H10       -20.8365    18.8425   -18.9144 H          1  LIG1   0.0900
     32 H11       -22.0087    18.0400   -17.8396 H          1  LIG1   0.1000
     33 H12       -19.8355    18.5094   -16.6885 H          1  LIG1   0.1200
     34 H13       -20.1928    16.7668   -16.7691 H          1  LIG1   0.1000
     35 H14       -18.3912    15.5084   -16.3161 H          1  LIG1   0.4100
     36 H15       -16.0742    16.7674   -15.0296 H          1  LIG1   0.0800
     37 H16       -16.9618    15.3448   -14.4324 H          1  LIG1   0.0800
     38 H17       -15.9730    13.9680   -16.2421 H          1  LIG1   0.0900
     39 H18       -15.0854    15.3904   -16.8394 H          1  LIG1   0.0900
     40 H19       -13.1460    16.2713   -15.4770 H          1  LIG1   0.1700
     41 H20       -12.2903    12.4225   -11.6450 H          1  LIG1   0.1300
     42 H21       -14.0337    10.7145   -11.4092 H          1  LIG1   0.1300
     43 H22       -16.0329    10.7775   -12.8443 H          1  LIG1   0.1300
     44 H23       -16.3039    12.5301   -14.5097 H          1  LIG1   0.1200
@<TRIPOS>BOND
     1    1    2 1
     2    1   24 1
     3    1   25 1
     4    1   26 1
     5    2    3 1
     6    2    8 1
     7    2    4 1
     8    4    5 1
     9    4   27 1
    10    4   28 1
    11    5    6 1
    12    5   29 1
    13    5   30 1
    14    6    7 1
    15    6   31 1
    16    6   32 1
    17    7    8 1
    18    7   33 1
    19    7   34 1
    20    8    9 1
    21    8   10 1
    22   10   11 2
    23   10   12 am
    24   12   13 1
    25   12   35 1
    26   13   14 1
    27   13   36 1
    28   13   37 1
    29   14   15 1
    30   14   38 1
    31   14   39 1
    32   15   23 1
    33   15   16 2
    34   16   17 1
    35   16   40 1
    36   17   18 1
    37   18   23 ar
    38   18   19 ar
    39   19   20 ar
    40   19   41 1
    41   20   21 ar
    42   20   42 1
    43   21   22 ar
    44   21   43 1
    45   22   23 ar
    46   22   44 1
##########                 Name:     ZINC000450634099
##########          Protonation:                 none
##########               SMILES:   C[C@@H]1C[N@@H+](CC2=CC=CC=C2)C[C@@H]1NC(=O)C1=CC=C(C(F)(F)F)N1
##########            Long Name:   NO_LONG_NAME
##########          FlexRecCode: 1
##########               Number:                 6570
##########   Ligand Source File: /nfs/db/export/3D/FG/ADMO/FGADMO.xagq.db2.gz
##########                 Rank:                    1
##########               Setnum:                   21
##########             Matchnum:                    1
##########                Cloud:                    1
##########        Electrostatic:           -37.348694
##########                 Gist:             0.000000
##########        Van der Waals:           -33.137398
##########  Ligand Polar Desolv:            13.310772
########## Ligand Apolar Desolv:            -5.426223
##########      Internal Energy:             0.000000
##########      Receptor Energy:             0.000000
########## Receptor Desolvation:             0.000000
########## Receptor Hydrophobic:             0.000000
##########         Total Energy:           -62.601543
##########        Ligand Charge:             1.000000
##########            Arbitrary:    +999.9990
##########        Ligand Energy:             0.000000

@<TRIPOS>MOLECULE
 ZINC000450634099      none
   46    48     0     0     0



@<TRIPOS>ATOM
      1 C1        -17.9628    17.2574   -15.6690 C.3        1  LIG1  -0.1600
      2 C2        -17.4684    17.7340   -17.0363 C.3        1  LIG1  -0.1100
      3 H1        -17.1453    18.7735   -16.9796 H          1  LIG1   0.1300
      4 C3        -18.5792    17.5765   -18.0911 C.3        1  LIG1  -0.0100
      5 N1        -18.0833    16.6192   -19.1036 N.4        1  LIG1  -0.3900
      6 H2        -18.3886    15.6845   -18.8776 H          1  LIG1   0.4200
      7 C4        -18.5627    17.0005   -20.4388 C.3        1  LIG1   0.0500
      8 C5        -20.0696    16.9961   -20.4516 C.ar       1  LIG1  -0.1600
      9 C6        -20.7561    17.8519   -21.2926 C.ar       1  LIG1  -0.0900
     10 C7        -22.1385    17.8479   -21.3044 C.ar       1  LIG1  -0.1100
     11 C8        -22.8341    16.9877   -20.4755 C.ar       1  LIG1  -0.0800
     12 C9        -22.1477    16.1312   -19.6352 C.ar       1  LIG1  -0.1100
     13 C10       -20.7653    16.1323   -19.6266 C.ar       1  LIG1  -0.1000
     14 C11       -16.6013    16.7017   -19.0471 C.3        1  LIG1  -0.0200
     15 C12       -16.3094    16.8380   -17.5299 C.3        1  LIG1   0.1300
     16 H3        -15.3469    17.3221   -17.3643 H          1  LIG1   0.1500
     17 N2        -16.3484    15.5282   -16.8748 N.am       1  LIG1  -0.7400
     18 C13       -15.6313    15.3136   -15.7541 C.2        1  LIG1   0.6000
     19 O1        -14.9514    16.2079   -15.2862 O.2        1  LIG1  -0.5000
     20 C14       -15.6703    14.0022   -15.0982 C.2        1  LIG1  -0.0300
     21 C15       -16.3877    12.9023   -15.5180 C.2        1  LIG1  -0.0900
     22 C16       -16.1357    11.8742   -14.6041 C.2        1  LIG1  -0.1300
     23 C17       -15.2875    12.3536   -13.6630 C.2        1  LIG1  -0.0400
     24 C18       -14.7533    11.5768   -12.4874 C.3        1  LIG1   0.5400
     25 F1        -15.2690    10.2765   -12.5144 F          1  LIG1  -0.1700
     26 F2        -13.3568    11.5261   -12.5576 F          1  LIG1  -0.1600
     27 F3        -15.1379    12.2064   -11.2989 F          1  LIG1  -0.1800
     28 N3        -14.9928    13.6439   -13.9549 N.pl3      1  LIG1  -0.5200
     29 H4        -18.2824    16.2178   -15.7404 H          1  LIG1   0.0800
     30 H5        -17.1554    17.3402   -14.9415 H          1  LIG1   0.0800
     31 H6        -18.8030    17.8748   -15.3512 H          1  LIG1   0.0600
     32 H7        -19.4831    17.1868   -17.6230 H          1  LIG1   0.1400
     33 H8        -18.7857    18.5387   -18.5595 H          1  LIG1   0.1400
     34 H9        -18.2001    17.9989   -20.6836 H          1  LIG1   0.1400
     35 H10       -18.1909    16.2883   -21.1754 H          1  LIG1   0.1400
     36 H11       -20.2125    18.5240   -21.9402 H          1  LIG1   0.1300
     37 H12       -22.6748    18.5169   -21.9609 H          1  LIG1   0.1400
     38 H13       -23.9142    16.9851   -20.4842 H          1  LIG1   0.1400
     39 H14       -22.6913    15.4595   -18.9874 H          1  LIG1   0.1400
     40 H15       -20.2289    15.4632   -18.9701 H          1  LIG1   0.1300
     41 H16       -16.1499    15.7931   -19.4460 H          1  LIG1   0.1400
     42 H17       -16.2439    17.5787   -19.5867 H          1  LIG1   0.1500
     43 H18       -16.8906    14.8154   -17.2477 H          1  LIG1   0.4000
     44 H19       -17.0247    12.8453   -16.3882 H          1  LIG1   0.1700
     45 H20       -16.5449    10.8755   -14.6418 H          1  LIG1   0.1700
     46 H21       -14.4066    14.2206   -13.4404 H          1  LIG1   0.4200
@<TRIPOS>BOND
     1    1    2 1
     2    1   29 1
     3    1   30 1
     4    1   31 1
     5    2    3 1
     6    2   15 1
     7    2    4 1
     8    4    5 1
     9    4   32 1
    10    4   33 1
    11    5    6 1
    12    5    7 1
    13    5   14 1
    14    7    8 1
    15    7   34 1
    16    7   35 1
    17    8   13 ar
    18    8    9 ar
    19    9   10 ar
    20    9   36 1
    21   10   11 ar
    22   10   37 1
    23   11   12 ar
    24   11   38 1
    25   12   13 ar
    26   12   39 1
    27   13   40 1
    28   14   15 1
    29   14   41 1
    30   14   42 1
    31   15   16 1
    32   15   17 1
    33   17   18 am
    34   17   43 1
    35   18   19 2
    36   18   20 1
    37   20   28 1
    38   20   21 2
    39   21   22 1
    40   21   44 1
    41   22   23 2
    42   22   45 1
    43   23   24 1
    44   23   28 1
    45   24   25 1
    46   24   26 1
    47   24   27 1
    48   28   46 1
##########                 Name:     ZINC000013718486
##########          Protonation:                 none
##########               SMILES:   C[C@H](CCc1ccccc1)[NH2+]C[C@H](C)c1ccccc1
##########            Long Name:   NO_LONG_NAME
##########          FlexRecCode: 1
##########               Number:                 5515
##########   Ligand Source File: /nfs/db/export/3D/CI/AARO/CIAARO.xab.db2.gz
##########                 Rank:                    1
##########               Setnum:                   53
##########             Matchnum:                    1
##########                Cloud:                    1
##########        Electrostatic:           -40.956234
##########                 Gist:             0.000000
##########        Van der Waals:           -28.599216
##########  Ligand Polar Desolv:            13.824236
########## Ligand Apolar Desolv:            -7.206779
##########      Internal Energy:             0.000000
##########      Receptor Energy:             0.000000
########## Receptor Desolvation:             0.000000
########## Receptor Hydrophobic:             0.000000
##########         Total Energy:           -62.937992
##########        Ligand Charge:             1.000000
##########            Arbitrary:    +999.9990
##########        Ligand Energy:             0.000000

@<TRIPOS>MOLECULE
 ZINC000013718486      none
   46    47     0     0     0



@<TRIPOS>ATOM
      1 C1        -16.6693    18.2208   -16.5210 C.3        1  LIG1  -0.1800
      2 C2        -17.7305    17.1412   -16.2985 C.3        1  LIG1   0.0300
      3 H1        -18.6396    17.6001   -15.9100 H          1  LIG1   0.1400
      4 C3        -17.2085    16.1126   -15.2933 C.3        1  LIG1  -0.1400
      5 C4        -15.9323    15.4686   -15.8388 C.3        1  LIG1  -0.0900
      6 C5        -15.4181    14.4555   -14.8487 C.ar       1  LIG1  -0.1000
      7 C6        -14.5312    14.8422   -13.8614 C.ar       1  LIG1  -0.1200
      8 C7        -14.0596    13.9129   -12.9533 C.ar       1  LIG1  -0.1100
      9 C8        -14.4752    12.5969   -13.0322 C.ar       1  LIG1  -0.1100
     10 C9        -15.3628    12.2103   -14.0188 C.ar       1  LIG1  -0.1100
     11 C10       -15.8378    13.1405   -14.9244 C.ar       1  LIG1  -0.1100
     12 N1        -18.0251    16.4741   -17.5736 N.4        1  LIG1  -0.5100
     13 H2        -17.1680    16.3402   -18.0891 H          1  LIG1   0.4200
     14 H3        -18.4526    15.5779   -17.3935 H          1  LIG1   0.4300
     15 C11       -18.9449    17.3062   -18.3606 C.3        1  LIG1  -0.0100
     16 C12       -19.2517    16.6112   -19.6887 C.3        1  LIG1  -0.0700
     17 H4        -19.3725    15.5413   -19.5196 H          1  LIG1   0.1000
     18 C13       -18.0977    16.8460   -20.6656 C.3        1  LIG1  -0.1700
     19 C14       -20.5233    17.1750   -20.2688 C.ar       1  LIG1  -0.1000
     20 C15       -21.7411    16.6049   -19.9485 C.ar       1  LIG1  -0.1100
     21 C16       -22.9076    17.1219   -20.4806 C.ar       1  LIG1  -0.1100
     22 C17       -22.8562    18.2090   -21.3326 C.ar       1  LIG1  -0.1000
     23 C18       -21.6382    18.7799   -21.6521 C.ar       1  LIG1  -0.1100
     24 C19       -20.4722    18.2654   -21.1166 C.ar       1  LIG1  -0.1100
     25 H5        -15.7601    17.7619   -16.9094 H          1  LIG1   0.0800
     26 H6        -17.0410    18.9536   -17.2370 H          1  LIG1   0.1100
     27 H7        -16.4507    18.7158   -15.5748 H          1  LIG1   0.0800
     28 H8        -16.9898    16.6076   -14.3472 H          1  LIG1   0.0900
     29 H9        -17.9644    15.3434   -15.1348 H          1  LIG1   0.1200
     30 H10       -16.1509    14.9736   -16.7849 H          1  LIG1   0.0900
     31 H11       -15.1764    16.2378   -15.9973 H          1  LIG1   0.0700
     32 H12       -14.2066    15.8704   -13.7999 H          1  LIG1   0.1200
     33 H13       -13.3662    14.2149   -12.1824 H          1  LIG1   0.1300
     34 H14       -14.1061    11.8707   -12.3231 H          1  LIG1   0.1300
     35 H15       -15.6872    11.1820   -14.0806 H          1  LIG1   0.1300
     36 H16       -16.5312    12.8386   -15.6953 H          1  LIG1   0.1200
     37 H17       -19.8707    17.4506   -17.8038 H          1  LIG1   0.1400
     38 H18       -18.4830    18.2741   -18.5553 H          1  LIG1   0.1400
     39 H19       -18.3162    16.3508   -21.6117 H          1  LIG1   0.0700
     40 H20       -17.9769    17.9159   -20.8348 H          1  LIG1   0.0600
     41 H21       -17.1780    16.4382   -20.2461 H          1  LIG1   0.0900
     42 H22       -21.7815    15.7554   -19.2828 H          1  LIG1   0.1200
     43 H23       -23.8591    16.6761   -20.2309 H          1  LIG1   0.1300
     44 H24       -23.7670    18.6133   -21.7489 H          1  LIG1   0.1300
     45 H25       -21.5979    19.6292   -22.3181 H          1  LIG1   0.1300
     46 H26       -19.5207    18.7112   -21.3663 H          1  LIG1   0.1300
@<TRIPOS>BOND
     1    1    2 1
     2    1   25 1
     3    1   26 1
     4    1   27 1
     5    2    3 1
     6    2    4 1
     7    2   12 1
     8    4    5 1
     9    4   28 1
    10    4   29 1
    11    5    6 1
    12    5   30 1
    13    5   31 1
    14    6   11 ar
    15    6    7 ar
    16    7    8 ar
    17    7   32 1
    18    8    9 ar
    19    8   33 1
    20    9   10 ar
    21    9   34 1
    22   10   11 ar
    23   10   35 1
    24   11   36 1
    25   12   13 1
    26   12   14 1
    27   12   15 1
    28   15   16 1
    29   15   37 1
    30   15   38 1
    31   16   17 1
    32   16   18 1
    33   16   19 1
    34   18   39 1
    35   18   40 1
    36   18   41 1
    37   19   24 ar
    38   19   20 ar
    39   20   21 ar
    40   20   42 1
    41   21   22 ar
    42   21   43 1
    43   22   23 ar
    44   22   44 1
    45   23   24 ar
    46   23   45 1
    47   24   46 1
##########                 Name:     ZINC000170901807
##########          Protonation:                 none
##########               SMILES:   CC1(C)CN(C(=O)C2=NOC(C3CC3)=C2)CC[N@H+]1CC1=CC=CC=C1
##########            Long Name:   NO_LONG_NAME
##########          FlexRecCode: 1
##########               Number:                12064
##########   Ligand Source File: /nfs/db/export/3D/EG/ADMO/EGADMO.xbql.db2.gz
##########                 Rank:                    1
##########               Setnum:                   87
##########             Matchnum:                    1
##########                Cloud:                    1
##########        Electrostatic:           -44.929993
##########                 Gist:             0.000000
##########        Van der Waals:           -24.327129
##########  Ligand Polar Desolv:            13.618516
########## Ligand Apolar Desolv:            -6.840487
##########      Internal Energy:             0.000000
##########      Receptor Energy:             0.000000
########## Receptor Desolvation:             0.000000
########## Receptor Hydrophobic:             0.000000
##########         Total Energy:           -62.479095
##########        Ligand Charge:             1.000000
##########            Arbitrary:    +999.9990
##########        Ligand Energy:             0.000000

@<TRIPOS>MOLECULE
 ZINC000170901807      none
   51    54     0     0     0



@<TRIPOS>ATOM
      1 C1        -16.3250    17.1117   -19.4922 C.3        1  LIG1  -0.1700
      2 C2        -17.1144    16.0806   -18.6832 C.3        1  LIG1   0.0400
      3 C3        -16.9309    14.6948   -19.3051 C.3        1  LIG1  -0.1800
      4 C4        -16.6033    16.0643   -17.2388 C.3        1  LIG1   0.1000
      5 N1        -16.9084    17.3643   -16.6215 N.am       1  LIG1  -0.6200
      6 C5        -15.9552    18.0662   -15.9771 C.2        1  LIG1   0.6100
      7 O1        -16.0070    19.2798   -15.9517 O.2        1  LIG1  -0.4900
      8 C6        -14.8427    17.3571   -15.2991 C.2        1  LIG1  -0.0200
      9 N2        -13.6241    17.7998   -15.1133 N.2        1  LIG1  -0.3400
     10 O2        -12.9443    16.9902   -14.5267 O.3        1  LIG1   0.1200
     11 C7        -13.6326    15.8774   -14.2371 C.2        1  LIG1   0.0300
     12 C8        -13.1140    14.6608   -13.5147 C.3        1  LIG1  -0.1000
     13 C9        -13.3348    13.2988   -14.1759 C.3        1  LIG1  -0.1600
     14 C10       -11.9348    13.9153   -14.1430 C.3        1  LIG1  -0.1600
     15 C11       -14.8858    16.0611   -14.7135 C.2        1  LIG1  -0.1800
     16 C12       -18.2833    17.8766   -16.7278 C.3        1  LIG1   0.0600
     17 C13       -18.7152    17.8074   -18.1963 C.3        1  LIG1  -0.0300
     18 N3        -18.5390    16.4369   -18.6933 N.4        1  LIG1  -0.3800
     19 H1        -19.0484    15.7978   -18.1015 H          1  LIG1   0.4200
     20 C14       -19.0531    16.3459   -20.0663 C.3        1  LIG1   0.0300
     21 C15       -20.5151    16.7111   -20.0804 C.ar       1  LIG1  -0.1600
     22 C16       -21.4738    15.7321   -19.8973 C.ar       1  LIG1  -0.0900
     23 C17       -22.8149    16.0671   -19.9103 C.ar       1  LIG1  -0.1100
     24 C18       -23.1973    17.3810   -20.1059 C.ar       1  LIG1  -0.0800
     25 C19       -22.2386    18.3600   -20.2882 C.ar       1  LIG1  -0.1100
     26 C20       -20.8974    18.0258   -20.2709 C.ar       1  LIG1  -0.1000
     27 H2        -15.2676    16.8470   -19.4846 H          1  LIG1   0.0800
     28 H3        -16.6891    17.1237   -20.5194 H          1  LIG1   0.1100
     29 H4        -16.4557    18.0988   -19.0487 H          1  LIG1   0.0900
     30 H5        -17.4933    13.9604   -18.7287 H          1  LIG1   0.1100
     31 H6        -17.2948    14.7067   -20.3325 H          1  LIG1   0.0900
     32 H7        -15.8733    14.4303   -19.2973 H          1  LIG1   0.0900
     33 H8        -17.1005    15.2693   -16.6832 H          1  LIG1   0.1000
     34 H9        -15.5258    15.9003   -17.2335 H          1  LIG1   0.1400
     35 H10       -13.1590    14.7055   -12.4264 H          1  LIG1   0.1500
     36 H11       -13.5252    12.4472   -13.5228 H          1  LIG1   0.1100
     37 H12       -13.8551    13.2828   -15.1336 H          1  LIG1   0.1100
     38 H13       -11.5342    14.3047   -15.0788 H          1  LIG1   0.1000
     39 H14       -11.2043    13.4693   -13.4681 H          1  LIG1   0.1100
     40 H15       -15.7222    15.3796   -14.6664 H          1  LIG1   0.1900
     41 H16       -18.9502    17.2647   -16.1207 H          1  LIG1   0.1000
     42 H17       -18.3165    18.9106   -16.3847 H          1  LIG1   0.1700
     43 H18       -19.7639    18.0924   -18.2806 H          1  LIG1   0.1500
     44 H19       -18.1042    18.4896   -18.7873 H          1  LIG1   0.1400
     45 H20       -18.5008    17.0330   -20.7073 H          1  LIG1   0.1400
     46 H21       -18.9294    15.3272   -20.4338 H          1  LIG1   0.1400
     47 H22       -21.1750    14.7056   -19.7444 H          1  LIG1   0.1300
     48 H23       -23.5640    15.3021   -19.7679 H          1  LIG1   0.1400
     49 H24       -24.2451    17.6426   -20.1168 H          1  LIG1   0.1400
     50 H25       -22.5374    19.3866   -20.4414 H          1  LIG1   0.1400
     51 H26       -20.1484    18.7907   -20.4132 H          1  LIG1   0.1300
@<TRIPOS>BOND
     1    1    2 1
     2    1   27 1
     3    1   28 1
     4    1   29 1
     5    2   18 1
     6    2    3 1
     7    2    4 1
     8    3   30 1
     9    3   31 1
    10    3   32 1
    11    4    5 1
    12    4   33 1
    13    4   34 1
    14    5    6 am
    15    5   16 1
    16    6    7 2
    17    6    8 1
    18    8   15 1
    19    8    9 2
    20    9   10 1
    21   10   11 1
    22   11   12 1
    23   11   15 2
    24   12   14 1
    25   12   13 1
    26   12   35 1
    27   13   14 1
    28   13   36 1
    29   13   37 1
    30   14   38 1
    31   14   39 1
    32   15   40 1
    33   16   17 1
    34   16   41 1
    35   16   42 1
    36   17   18 1
    37   17   43 1
    38   17   44 1
    39   18   19 1
    40   18   20 1
    41   20   21 1
    42   20   45 1
    43   20   46 1
    44   21   26 ar
    45   21   22 ar
    46   22   23 ar
    47   22   47 1
    48   23   24 ar
    49   23   48 1
    50   24   25 ar
    51   24   49 1
    52   25   26 ar
    53   25   50 1
    54   26   51 1
##########                 Name:     ZINC000655348118
##########          Protonation:                 none
##########               SMILES:   COC1=CC=CC(C[C@H](O)C(=O)N[C@H]2CCC[N@@H+]3CCCC[C@@H]23)=C1
##########            Long Name:   NO_LONG_NAME
##########          FlexRecCode: 1
##########               Number:                 4683
##########   Ligand Source File: /nfs/db/export/3D/ED/ADRO/EDADRO.xciq.db2.gz
##########                 Rank:                    1
##########               Setnum:                   65
##########             Matchnum:                    1
##########                Cloud:                    1
##########        Electrostatic:           -44.992020
##########                 Gist:             0.000000
##########        Van der Waals:           -32.367104
##########  Ligand Polar Desolv:            18.453573
########## Ligand Apolar Desolv:            -4.381488
##########      Internal Energy:             0.000000
##########      Receptor Energy:             0.000000
########## Receptor Desolvation:             0.000000
########## Receptor Hydrophobic:             0.000000
##########         Total Energy:           -63.287041
##########        Ligand Charge:             1.000000
##########            Arbitrary:    +999.9990
##########        Ligand Energy:             0.000000

@<TRIPOS>MOLECULE
 ZINC000655348118      none
   53    55     0     0     0



@<TRIPOS>ATOM
      1 C1        -12.6635    14.8476   -11.6347 C.3        1  LIG1   0.0300
      2 O1        -13.2420    13.5423   -11.6959 O.3        1  LIG1  -0.3200
      3 C2        -14.0972    13.2939   -12.7224 C.ar       1  LIG1   0.1300
      4 C3        -14.6992    12.0498   -12.8395 C.ar       1  LIG1  -0.2000
      5 C4        -15.5687    11.7999   -13.8838 C.ar       1  LIG1  -0.0700
      6 C5        -15.8386    12.7884   -14.8116 C.ar       1  LIG1  -0.1400
      7 C6        -15.2393    14.0295   -14.6974 C.ar       1  LIG1  -0.0500
      8 C7        -15.5354    15.1047   -15.7110 C.3        1  LIG1  -0.1000
      9 C8        -16.7431    15.9225   -15.2490 C.3        1  LIG1   0.1000
     10 H1        -16.5236    16.3822   -14.2854 H          1  LIG1   0.1300
     11 O2        -17.8782    15.0642   -15.1196 O.3        1  LIG1  -0.5200
     12 C9        -17.0392    16.9976   -16.2626 C.2        1  LIG1   0.4900
     13 O3        -16.5180    18.0879   -16.1602 O.2        1  LIG1  -0.5000
     14 N1        -17.8834    16.7475   -17.2831 N.am       1  LIG1  -0.7400
     15 C10       -18.1713    17.7926   -18.2686 C.3        1  LIG1   0.1300
     16 H2        -18.0943    18.7703   -17.7929 H          1  LIG1   0.1300
     17 C11       -17.1616    17.7034   -19.4142 C.3        1  LIG1  -0.1500
     18 C12       -17.3289    16.3488   -20.1107 C.3        1  LIG1  -0.1400
     19 C13       -18.7684    16.2248   -20.6089 C.3        1  LIG1  -0.0100
     20 N2        -19.7046    16.3006   -19.4776 N.4        1  LIG1  -0.3800
     21 H3        -19.4951    15.5666   -18.8178 H          1  LIG1   0.4100
     22 C14       -21.0662    16.1150   -20.0010 C.3        1  LIG1  -0.0100
     23 C15       -22.0767    16.1213   -18.8544 C.3        1  LIG1  -0.1500
     24 C16       -21.9986    17.4710   -18.1333 C.3        1  LIG1  -0.1400
     25 C17       -20.5674    17.6770   -17.6339 C.3        1  LIG1  -0.1400
     26 C18       -19.5905    17.6015   -18.8138 C.3        1  LIG1   0.0200
     27 H4        -19.8171    18.3957   -19.5252 H          1  LIG1   0.1500
     28 C19       -14.3741    14.2863   -13.6518 C.ar       1  LIG1  -0.1500
     29 H5        -12.0025    14.9120   -10.7704 H          1  LIG1   0.0600
     30 H6        -12.0920    15.0348   -12.5439 H          1  LIG1   0.0600
     31 H7        -13.4548    15.5917   -11.5434 H          1  LIG1   0.1000
     32 H8        -14.4882    11.2769   -12.1152 H          1  LIG1   0.1300
     33 H9        -16.0378    10.8313   -13.9754 H          1  LIG1   0.1300
     34 H10       -16.5182    12.5911   -15.6274 H          1  LIG1   0.1200
     35 H11       -14.6695    15.7594   -15.8096 H          1  LIG1   0.0800
     36 H12       -15.7549    14.6450   -16.6747 H          1  LIG1   0.0900
     37 H13       -18.1314    14.6204   -15.9405 H          1  LIG1   0.3900
     38 H14       -18.3003    15.8754   -17.3651 H          1  LIG1   0.3900
     39 H15       -17.3460    18.5068   -20.1274 H          1  LIG1   0.0900
     40 H16       -16.1499    17.7883   -19.0174 H          1  LIG1   0.1000
     41 H17       -16.6431    16.2856   -20.9556 H          1  LIG1   0.1200
     42 H18       -17.1162    15.5463   -19.4045 H          1  LIG1   0.0900
     43 H19       -18.9799    17.0342   -21.3077 H          1  LIG1   0.1300
     44 H20       -18.8934    15.2690   -21.1178 H          1  LIG1   0.1300
     45 H21       -21.3004    16.9238   -20.6934 H          1  LIG1   0.1300
     46 H22       -21.1239    15.1629   -20.5284 H          1  LIG1   0.1300
     47 H23       -23.0813    15.9774   -19.2522 H          1  LIG1   0.1100
     48 H24       -21.8404    15.3193   -18.1549 H          1  LIG1   0.0900
     49 H25       -22.2632    18.2709   -18.8249 H          1  LIG1   0.0800
     50 H26       -22.6853    17.4738   -17.2869 H          1  LIG1   0.1000
     51 H27       -20.4868    18.6545   -17.1579 H          1  LIG1   0.1100
     52 H28       -20.3210    16.9008   -16.9095 H          1  LIG1   0.0900
     53 H29       -13.9066    15.2557   -13.5628 H          1  LIG1   0.1300
@<TRIPOS>BOND
     1    1    2 1
     2    1   29 1
     3    1   30 1
     4    1   31 1
     5    2    3 1
     6    3   28 ar
     7    3    4 ar
     8    4    5 ar
     9    4   32 1
    10    5    6 ar
    11    5   33 1
    12    6    7 ar
    13    6   34 1
    14    7    8 1
    15    7   28 ar
    16    8    9 1
    17    8   35 1
    18    8   36 1
    19    9   10 1
    20    9   11 1
    21    9   12 1
    22   11   37 1
    23   12   13 2
    24   12   14 am
    25   14   15 1
    26   14   38 1
    27   15   16 1
    28   15   26 1
    29   15   17 1
    30   17   18 1
    31   17   39 1
    32   17   40 1
    33   18   19 1
    34   18   41 1
    35   18   42 1
    36   19   20 1
    37   19   43 1
    38   19   44 1
    39   20   21 1
    40   20   26 1
    41   20   22 1
    42   22   23 1
    43   22   45 1
    44   22   46 1
    45   23   24 1
    46   23   47 1
    47   23   48 1
    48   24   25 1
    49   24   49 1
    50   24   50 1
    51   25   26 1
    52   25   51 1
    53   25   52 1
    54   26   27 1
    55   28   53 1
##########                 Name:     ZINC000547464954
##########          Protonation:                 none
##########               SMILES:   CCC[N@H+](C)CC(=O)NC1=C2N=CC=CC2=C(OC)C=C1
##########            Long Name:   NO_LONG_NAME
##########          FlexRecCode: 1
##########               Number:                 8151
##########   Ligand Source File: /nfs/db/export/3D/CF/ADRO/CFADRO.xcqo.db2.gz
##########                 Rank:                    1
##########               Setnum:                  105
##########             Matchnum:                    1
##########                Cloud:                    1
##########        Electrostatic:           -40.759239
##########                 Gist:             0.000000
##########        Van der Waals:           -32.860264
##########  Ligand Polar Desolv:            14.705647
########## Ligand Apolar Desolv:            -3.838529
##########      Internal Energy:             0.000000
##########      Receptor Energy:             0.000000
########## Receptor Desolvation:             0.000000
########## Receptor Hydrophobic:             0.000000
##########         Total Energy:           -62.752388
##########        Ligand Charge:             1.000000
##########            Arbitrary:    +999.9990
##########        Ligand Energy:             0.000000

@<TRIPOS>MOLECULE
 ZINC000547464954      none
   43    44     0     0     0



@<TRIPOS>ATOM
      1 C1        -21.8229    16.8277   -20.0822 C.3        1  LIG1  -0.1600
      2 C2        -20.9640    16.6725   -18.8255 C.3        1  LIG1  -0.1500
      3 C3        -19.4861    16.8061   -19.1983 C.3        1  LIG1  -0.0100
      4 N1        -18.6614    16.6571   -17.9917 N.4        1  LIG1  -0.3700
      5 H1        -18.8245    15.7491   -17.5830 H          1  LIG1   0.4300
      6 C4        -19.0183    17.7018   -17.0227 C.3        1  LIG1  -0.0600
      7 C5        -17.2425    16.7852   -18.3497 C.3        1  LIG1  -0.0300
      8 C6        -16.3964    16.6323   -17.1120 C.2        1  LIG1   0.5000
      9 O1        -16.1083    17.6071   -16.4502 O.2        1  LIG1  -0.5200
     10 N2        -15.9601    15.4125   -16.7405 N.am       1  LIG1  -0.6200
     11 C7        -15.1743    15.2705   -15.5909 C.ar       1  LIG1   0.0900
     12 C8        -15.2241    14.0757   -14.8427 C.ar       1  LIG1   0.1600
     13 N3        -16.0151    13.0643   -15.2134 N.ar       1  LIG1  -0.4900
     14 C9        -16.0666    11.9507   -14.5235 C.ar       1  LIG1   0.1600
     15 C10       -15.3030    11.7658   -13.3734 C.ar       1  LIG1  -0.1800
     16 C11       -14.4732    12.7605   -12.9392 C.ar       1  LIG1  -0.0200
     17 C12       -14.4207    13.9534   -13.6826 C.ar       1  LIG1  -0.1100
     18 C13       -13.5876    15.0207   -13.2943 C.ar       1  LIG1   0.1700
     19 O2        -12.8130    14.9130   -12.1833 O.3        1  LIG1  -0.3100
     20 C14       -13.3878    15.3425   -10.9475 C.3        1  LIG1   0.0200
     21 C15       -13.5615    16.1734   -14.0466 C.ar       1  LIG1  -0.2200
     22 C16       -14.3456    16.2947   -15.1894 C.ar       1  LIG1  -0.0400
     23 H2        -22.8759    16.7326   -19.8166 H          1  LIG1   0.0700
     24 H3        -21.6468    17.8085   -20.5238 H          1  LIG1   0.0700
     25 H4        -21.5582    16.0526   -20.8012 H          1  LIG1   0.0800
     26 H5        -21.2288    17.4477   -18.1065 H          1  LIG1   0.0900
     27 H6        -21.1402    15.6918   -18.3839 H          1  LIG1   0.0900
     28 H7        -19.2213    16.0309   -19.9174 H          1  LIG1   0.1300
     29 H8        -19.3100    17.7868   -19.6399 H          1  LIG1   0.1300
     30 H9        -18.4065    17.5913   -16.1275 H          1  LIG1   0.1200
     31 H10       -18.8421    18.6826   -17.4644 H          1  LIG1   0.1300
     32 H11       -20.0712    17.6067   -16.7572 H          1  LIG1   0.1400
     33 H12       -16.9777    16.0101   -19.0688 H          1  LIG1   0.1600
     34 H13       -17.0662    17.7660   -18.7914 H          1  LIG1   0.1600
     35 H14       -16.1907    14.6330   -17.2696 H          1  LIG1   0.4200
     36 H15       -16.7183    11.1560   -14.8554 H          1  LIG1   0.1700
     37 H16       -15.3672    10.8374   -12.8253 H          1  LIG1   0.1500
     38 H17       -13.8743    12.6345   -12.0493 H          1  LIG1   0.1500
     39 H18       -12.6658    15.2027   -10.1430 H          1  LIG1   0.0600
     40 H19       -13.6540    16.3971   -11.0178 H          1  LIG1   0.0600
     41 H20       -14.2821    14.7552   -10.7392 H          1  LIG1   0.1100
     42 H21       -12.9225    16.9913   -13.7483 H          1  LIG1   0.1400
     43 H22       -14.3102    17.2077   -15.7651 H          1  LIG1   0.1500
@<TRIPOS>BOND
     1    1    2 1
     2    1   23 1
     3    1   24 1
     4    1   25 1
     5    2    3 1
     6    2   26 1
     7    2   27 1
     8    3    4 1
     9    3   28 1
    10    3   29 1
    11    4    5 1
    12    4    6 1
    13    4    7 1
    14    6   30 1
    15    6   31 1
    16    6   32 1
    17    7    8 1
    18    7   33 1
    19    7   34 1
    20    8    9 2
    21    8   10 am
    22   10   11 1
    23   10   35 1
    24   11   22 ar
    25   11   12 ar
    26   12   17 ar
    27   12   13 ar
    28   13   14 ar
    29   14   15 ar
    30   14   36 1
    31   15   16 ar
    32   15   37 1
    33   16   17 ar
    34   16   38 1
    35   17   18 ar
    36   18   19 1
    37   18   21 ar
    38   19   20 1
    39   20   39 1
    40   20   40 1
    41   20   41 1
    42   21   22 ar
    43   21   42 1
    44   22   43 1
##########                 Name:     ZINC000277633576
##########          Protonation:                 none
##########               SMILES:   CC1=CC=CC(NC(=O)C[NH2+][C@@H]2CCOC[C@@H]2C)=C1C
##########            Long Name:   NO_LONG_NAME
##########          FlexRecCode: 1
##########               Number:                 2357
##########   Ligand Source File: /nfs/db/export/3D/CE/ADRO/CEADRO.xbwb.db2.gz
##########                 Rank:                    1
##########               Setnum:                   26
##########             Matchnum:                    1
##########                Cloud:                    1
##########        Electrostatic:           -48.684307
##########                 Gist:             0.000000
##########        Van der Waals:           -26.269960
##########  Ligand Polar Desolv:            16.121162
########## Ligand Apolar Desolv:            -3.654364
##########      Internal Energy:             0.000000
##########      Receptor Energy:             0.000000
########## Receptor Desolvation:             0.000000
########## Receptor Hydrophobic:             0.000000
##########         Total Energy:           -62.487473
##########        Ligand Charge:             1.000000
##########            Arbitrary:    +999.9990
##########        Ligand Energy:             0.000000

@<TRIPOS>MOLECULE
 ZINC000277633576      none
   45    46     0     0     0



@<TRIPOS>ATOM
      1 C1        -13.7751    13.3674   -13.8288 C.3        1  LIG1  -0.1200
      2 C2        -14.2806    14.6204   -14.4963 C.ar       1  LIG1  -0.0700
      3 C3        -13.7275    15.8457   -14.1739 C.ar       1  LIG1  -0.1100
      4 C4        -14.1889    16.9981   -14.7840 C.ar       1  LIG1  -0.1000
      5 C5        -15.2038    16.9279   -15.7177 C.ar       1  LIG1  -0.1200
      6 C6        -15.7613    15.6983   -16.0441 C.ar       1  LIG1   0.1200
      7 N1        -16.7894    15.6237   -16.9903 N.am       1  LIG1  -0.6400
      8 C7        -16.8505    16.5239   -17.9914 C.2        1  LIG1   0.5000
      9 O1        -16.0144    17.3988   -18.0722 O.2        1  LIG1  -0.5100
     10 C8        -17.9578    16.4435   -19.0104 C.3        1  LIG1  -0.0300
     11 N2        -19.2556    16.5755   -18.3349 N.4        1  LIG1  -0.4900
     12 H1        -19.3622    15.8303   -17.6630 H          1  LIG1   0.4400
     13 H2        -19.2990    17.4649   -17.8607 H          1  LIG1   0.4300
     14 C9        -20.3349    16.4971   -19.3284 C.3        1  LIG1   0.0300
     15 H3        -20.0952    15.7329   -20.0678 H          1  LIG1   0.1500
     16 C10       -20.4899    17.8528   -20.0246 C.3        1  LIG1  -0.1800
     17 C11       -21.6672    17.7846   -21.0008 C.3        1  LIG1   0.0600
     18 O2        -22.8524    17.4191   -20.2910 O.3        1  LIG1  -0.3600
     19 C12       -22.7828    16.1394   -19.6590 C.3        1  LIG1   0.0700
     20 C13       -21.6500    16.1393   -18.6292 C.3        1  LIG1  -0.1500
     21 H4        -21.5676    15.1502   -18.1784 H          1  LIG1   0.1100
     22 C14       -21.9473    17.1737   -17.5418 C.3        1  LIG1  -0.1700
     23 C15       -15.2922    14.5427   -15.4337 C.ar       1  LIG1  -0.1000
     24 C16       -15.8941    13.2065   -15.7849 C.3        1  LIG1  -0.1200
     25 H5        -12.9832    13.6246   -13.1253 H          1  LIG1   0.0800
     26 H6        -14.5934    12.8850   -13.2943 H          1  LIG1   0.0700
     27 H7        -13.3830    12.6863   -14.5842 H          1  LIG1   0.0700
     28 H8        -12.9336    15.9034   -13.4439 H          1  LIG1   0.1300
     29 H9        -13.7553    17.9540   -14.5294 H          1  LIG1   0.1300
     30 H10       -15.5640    17.8280   -16.1934 H          1  LIG1   0.1400
     31 H11       -17.4583    14.9241   -16.9257 H          1  LIG1   0.4200
     32 H12       -17.8425    17.2484   -19.7364 H          1  LIG1   0.1600
     33 H13       -17.9110    15.4827   -19.5230 H          1  LIG1   0.1700
     34 H14       -20.6790    18.6254   -19.2793 H          1  LIG1   0.1000
     35 H15       -19.5767    18.0883   -20.5711 H          1  LIG1   0.1000
     36 H16       -21.8092    18.7593   -21.4677 H          1  LIG1   0.1200
     37 H17       -21.4596    17.0400   -21.7693 H          1  LIG1   0.0700
     38 H18       -23.7283    15.9287   -19.1594 H          1  LIG1   0.1200
     39 H19       -22.5897    15.3731   -20.4099 H          1  LIG1   0.0700
     40 H20       -22.8830    16.9190   -17.0442 H          1  LIG1   0.0900
     41 H21       -21.1372    17.1773   -16.8125 H          1  LIG1   0.0500
     42 H22       -22.0334    18.1616   -17.9940 H          1  LIG1   0.0800
     43 H23       -16.6713    13.3443   -16.5367 H          1  LIG1   0.0800
     44 H24       -15.1182    12.5511   -16.1804 H          1  LIG1   0.0800
     45 H25       -16.3283    12.7575   -14.8916 H          1  LIG1   0.0600
@<TRIPOS>BOND
     1    1    2 1
     2    1   25 1
     3    1   26 1
     4    1   27 1
     5    2   23 ar
     6    2    3 ar
     7    3    4 ar
     8    3   28 1
     9    4    5 ar
    10    4   29 1
    11    5    6 ar
    12    5   30 1
    13    6    7 1
    14    6   23 ar
    15    7    8 am
    16    7   31 1
    17    8    9 2
    18    8   10 1
    19   10   11 1
    20   10   32 1
    21   10   33 1
    22   11   12 1
    23   11   13 1
    24   11   14 1
    25   14   15 1
    26   14   20 1
    27   14   16 1
    28   16   17 1
    29   16   34 1
    30   16   35 1
    31   17   18 1
    32   17   36 1
    33   17   37 1
    34   18   19 1
    35   19   20 1
    36   19   38 1
    37   19   39 1
    38   20   21 1
    39   20   22 1
    40   22   40 1
    41   22   41 1
    42   22   42 1
    43   23   24 1
    44   24   43 1
    45   24   44 1
    46   24   45 1
##########                 Name:     ZINC000623439001
##########          Protonation:                 none
##########               SMILES:   O[C@]1(C[NH2+]CC2=CNN=C2C2=CC=C(Br)S2)CCSC1
##########            Long Name:   NO_LONG_NAME
##########          FlexRecCode: 1
##########               Number:                 4366
##########   Ligand Source File: /nfs/db/export/3D/FF/ADRO/FFADRO.xabr.db2.gz
##########                 Rank:                    1
##########               Setnum:                  190
##########             Matchnum:                    1
##########                Cloud:                    1
##########        Electrostatic:           -44.700207
##########                 Gist:             0.000000
##########        Van der Waals:           -31.440674
##########  Ligand Polar Desolv:            15.624739
########## Ligand Apolar Desolv:            -2.236022
##########      Internal Energy:             0.000000
##########      Receptor Energy:             0.000000
########## Receptor Desolvation:             0.000000
########## Receptor Hydrophobic:             0.000000
##########         Total Energy:           -62.752167
##########        Ligand Charge:             1.000000
##########            Arbitrary:    +999.9990
##########        Ligand Energy:             0.000000

@<TRIPOS>MOLECULE
 ZINC000623439001      none
   37    39     0     0     0



@<TRIPOS>ATOM
      1 O1        -18.0882    16.4827   -16.3279 O.3        1  LIG1  -0.5500
      2 C1        -17.1678    16.9489   -17.3167 C.3        1  LIG1   0.1100
      3 C2        -17.6978    16.6105   -18.7115 C.3        1  LIG1   0.0100
      4 N1        -19.1492    16.8326   -18.7510 N.4        1  LIG1  -0.5100
      5 H1        -19.5987    16.2414   -18.0679 H          1  LIG1   0.4400
      6 H2        -19.3475    17.7995   -18.5414 H          1  LIG1   0.4100
      7 C3        -19.6581    16.5077   -20.0902 C.3        1  LIG1   0.0800
      8 C4        -21.1473    16.7355   -20.1307 C.2        1  LIG1  -0.3100
      9 C5        -22.0994    15.8254   -19.8328 C.2        1  LIG1   0.1300
     10 N2        -23.3045    16.4149   -19.9890 N.pl3      1  LIG1  -0.4500
     11 N3        -23.0941    17.7379   -20.3983 N.2        1  LIG1  -0.2400
     12 C6        -21.7942    17.9389   -20.4805 C.2        1  LIG1   0.1600
     13 C7        -21.1315    19.1999   -20.8779 C.2        1  LIG1  -0.1300
     14 C8        -21.7661    20.3429   -21.2035 C.2        1  LIG1  -0.0700
     15 C9        -20.9324    21.3899   -21.5414 C.2        1  LIG1  -0.0800
     16 C10       -19.6260    21.1104   -21.4942 C.2        1  LIG1  -0.1600
     17 Br1       -18.2376    22.3286   -21.8989 Br         1  LIG1   0.0500
     18 S1        -19.3930    19.4415   -20.9913 S.3        1  LIG1   0.0900
     19 C11       -15.8012    16.2730   -17.1095 C.3        1  LIG1  -0.1500
     20 C12       -15.1721    16.9074   -15.8413 C.3        1  LIG1  -0.0900
     21 S2        -15.5651    18.6859   -16.0614 S.3        1  LIG1  -0.2200
     22 C13       -16.9958    18.4763   -17.1847 C.3        1  LIG1  -0.1500
     23 H3        -18.2433    15.5286   -16.3538 H          1  LIG1   0.4100
     24 H4        -17.2123    17.2491   -19.4494 H          1  LIG1   0.1500
     25 H5        -17.4837    15.5660   -18.9380 H          1  LIG1   0.1500
     26 H6        -19.1727    17.1464   -20.8281 H          1  LIG1   0.1400
     27 H7        -19.4440    15.4631   -20.3166 H          1  LIG1   0.1500
     28 H8        -21.9275    14.8048   -19.5242 H          1  LIG1   0.2000
     29 H9        -24.1666    15.9948   -19.8430 H          1  LIG1   0.4600
     30 H10       -22.8424    20.4328   -21.2008 H          1  LIG1   0.1600
     31 H11       -21.3076    22.3624   -21.8234 H          1  LIG1   0.1700
     32 H12       -15.9344    15.2012   -16.9629 H          1  LIG1   0.1100
     33 H13       -15.1615    16.4545   -17.9732 H          1  LIG1   0.1000
     34 H14       -15.6400    16.5154   -14.9383 H          1  LIG1   0.1000
     35 H15       -14.0940    16.7478   -15.8216 H          1  LIG1   0.1200
     36 H16       -16.7836    18.9203   -18.1572 H          1  LIG1   0.1000
     37 H17       -17.8895    18.9231   -16.7489 H          1  LIG1   0.1200
@<TRIPOS>BOND
     1    1    2 1
     2    1   23 1
     3    2   22 1
     4    2    3 1
     5    2   19 1
     6    3    4 1
     7    3   24 1
     8    3   25 1
     9    4    5 1
    10    4    6 1
    11    4    7 1
    12    7    8 1
    13    7   26 1
    14    7   27 1
    15    8   12 1
    16    8    9 2
    17    9   10 1
    18    9   28 1
    19   10   11 1
    20   10   29 1
    21   11   12 2
    22   12   13 1
    23   13   18 1
    24   13   14 2
    25   14   15 1
    26   14   30 1
    27   15   16 2
    28   15   31 1
    29   16   17 1
    30   16   18 1
    31   19   20 1
    32   19   32 1
    33   19   33 1
    34   20   21 1
    35   20   34 1
    36   20   35 1
    37   21   22 1
    38   22   36 1
    39   22   37 1
##########                 Name:     ZINC000656256239
##########          Protonation:                 none
##########               SMILES:   CC1=NN(C2=CC=C(C)C=C2)C=C1C[N@H+](C)C[C@@H](C)O
##########            Long Name:   NO_LONG_NAME
##########          FlexRecCode: 1
##########               Number:                 8873
##########   Ligand Source File: /nfs/db/export/3D/CE/ADMO/CEADMO.xbcb.db2.gz
##########                 Rank:                    1
##########               Setnum:                   27
##########             Matchnum:                    1
##########                Cloud:                    1
##########        Electrostatic:           -45.454403
##########                 Gist:             0.000000
##########        Van der Waals:           -27.453491
##########  Ligand Polar Desolv:            14.277494
########## Ligand Apolar Desolv:            -4.554825
##########      Internal Energy:             0.000000
##########      Receptor Energy:             0.000000
########## Receptor Desolvation:             0.000000
########## Receptor Hydrophobic:             0.000000
##########         Total Energy:           -63.185226
##########        Ligand Charge:             1.000000
##########            Arbitrary:    +999.9990
##########        Ligand Energy:             0.000000

@<TRIPOS>MOLECULE
 ZINC000656256239      none
   44    45     0     0     0



@<TRIPOS>ATOM
      1 C1        -14.7889    18.7375   -16.1430 C.3        1  LIG1  -0.0900
      2 C2        -15.1675    17.2878   -15.9816 C.2        1  LIG1   0.1000
      3 N1        -14.7028    16.4705   -15.0711 N.2        1  LIG1  -0.2700
      4 N2        -15.3015    15.2183   -15.2600 N.pl3      1  LIG1  -0.2900
      5 C3        -15.0713    14.0691   -14.4906 C.ar       1  LIG1   0.1200
      6 C4        -15.7317    12.8859   -14.7930 C.ar       1  LIG1  -0.1300
      7 C5        -15.5029    11.7554   -14.0331 C.ar       1  LIG1  -0.1000
      8 C6        -14.6175    11.8015   -12.9720 C.ar       1  LIG1  -0.0700
      9 C7        -14.3704    10.5663   -12.1446 C.3        1  LIG1  -0.1200
     10 C8        -13.9580    12.9784   -12.6687 C.ar       1  LIG1  -0.1000
     11 C9        -14.1783    14.1106   -13.4284 C.ar       1  LIG1  -0.1000
     12 C10       -16.1413    15.3142   -16.3156 C.2        1  LIG1   0.1100
     13 C11       -16.0809    16.5854   -16.7754 C.2        1  LIG1  -0.3100
     14 C12       -16.8534    17.1435   -17.9428 C.3        1  LIG1   0.0800
     15 N3        -17.7060    16.0921   -18.5134 N.4        1  LIG1  -0.3800
     16 H1        -18.1073    15.5431   -17.7681 H          1  LIG1   0.4200
     17 C13       -16.8986    15.2240   -19.3809 C.3        1  LIG1  -0.0500
     18 C14       -18.7817    16.7080   -19.3018 C.3        1  LIG1   0.0000
     19 C15       -19.8900    17.1899   -18.3636 C.3        1  LIG1   0.0800
     20 H2        -19.4448    17.6290   -17.4706 H          1  LIG1   0.0800
     21 C16       -20.7420    18.2408   -19.0780 C.3        1  LIG1  -0.1900
     22 O1        -20.7129    16.0828   -17.9905 O.3        1  LIG1  -0.5700
     23 H3        -14.0565    19.0085   -15.3827 H          1  LIG1   0.0800
     24 H4        -14.3598    18.8928   -17.1328 H          1  LIG1   0.0900
     25 H5        -15.6769    19.3596   -16.0303 H          1  LIG1   0.0800
     26 H6        -16.4239    12.8495   -15.6212 H          1  LIG1   0.1300
     27 H7        -16.0163    10.8346   -14.2677 H          1  LIG1   0.1400
     28 H8        -13.6486    10.7930   -11.3600 H          1  LIG1   0.0800
     29 H9        -15.3067    10.2381   -11.6932 H          1  LIG1   0.0700
     30 H10       -13.9774     9.7746   -12.7823 H          1  LIG1   0.0700
     31 H11       -13.2669    13.0113   -11.8394 H          1  LIG1   0.1400
     32 H12       -13.6629    15.0296   -13.1912 H          1  LIG1   0.1400
     33 H13       -16.7537    14.5201   -16.7166 H          1  LIG1   0.1900
     34 H14       -17.4757    17.9718   -17.6041 H          1  LIG1   0.1400
     35 H15       -16.1574    17.4990   -18.7026 H          1  LIG1   0.1300
     36 H16       -17.5311    14.4438   -19.8043 H          1  LIG1   0.1100
     37 H17       -16.4651    15.8172   -20.1861 H          1  LIG1   0.1400
     38 H18       -16.1004    14.7670   -18.7960 H          1  LIG1   0.1200
     39 H19       -18.3836    17.5558   -19.8595 H          1  LIG1   0.1400
     40 H20       -19.1882    15.9741   -19.9977 H          1  LIG1   0.1400
     41 H21       -21.5316    18.5840   -18.4095 H          1  LIG1   0.0800
     42 H22       -20.1144    19.0852   -19.3626 H          1  LIG1   0.0800
     43 H23       -21.1873    17.8019   -19.9709 H          1  LIG1   0.0800
     44 H24       -20.2377    15.3766   -17.5316 H          1  LIG1   0.4000
@<TRIPOS>BOND
     1    1    2 1
     2    1   23 1
     3    1   24 1
     4    1   25 1
     5    2   13 1
     6    2    3 2
     7    3    4 1
     8    4    5 1
     9    4   12 1
    10    5   11 ar
    11    5    6 ar
    12    6    7 ar
    13    6   26 1
    14    7    8 ar
    15    7   27 1
    16    8    9 1
    17    8   10 ar
    18    9   28 1
    19    9   29 1
    20    9   30 1
    21   10   11 ar
    22   10   31 1
    23   11   32 1
    24   12   13 2
    25   12   33 1
    26   13   14 1
    27   14   15 1
    28   14   34 1
    29   14   35 1
    30   15   16 1
    31   15   17 1
    32   15   18 1
    33   17   36 1
    34   17   37 1
    35   17   38 1
    36   18   19 1
    37   18   39 1
    38   18   40 1
    39   19   20 1
    40   19   21 1
    41   19   22 1
    42   21   41 1
    43   21   42 1
    44   21   43 1
    45   22   44 1
##########                 Name:     ZINC000354226663
##########          Protonation:                 none
##########               SMILES:   C[NH+](C)CCC1=CC=CC=C1NC(=O)C1=CC2=CC=CC=C2C(=O)N1
##########            Long Name:   NO_LONG_NAME
##########          FlexRecCode: 1
##########               Number:                 9797
##########   Ligand Source File: /nfs/db/export/3D/EG/ADRO/EGADRO.xanz.db2.gz
##########                 Rank:                    1
##########               Setnum:                   94
##########             Matchnum:                    1
##########                Cloud:                    1
##########        Electrostatic:           -46.542625
##########                 Gist:             0.000000
##########        Van der Waals:           -33.421925
##########  Ligand Polar Desolv:            22.075562
########## Ligand Apolar Desolv:            -4.963835
##########      Internal Energy:             0.000000
##########      Receptor Energy:             0.000000
########## Receptor Desolvation:             0.000000
########## Receptor Hydrophobic:             0.000000
##########         Total Energy:           -62.852829
##########        Ligand Charge:             1.000000
##########            Arbitrary:    +999.9990
##########        Ligand Energy:             0.000000

@<TRIPOS>MOLECULE
 ZINC000354226663      none
   47    49     0     0     0



@<TRIPOS>ATOM
      1 C1        -21.5460    16.4300   -17.2583 C.3        1  LIG1  -0.0500
      2 N1        -20.6060    16.0809   -18.3319 N.4        1  LIG1  -0.3900
      3 H1        -20.0820    15.2604   -18.0664 H          1  LIG1   0.4300
      4 C2        -21.3528    15.8067   -19.5668 C.3        1  LIG1  -0.0500
      5 C3        -19.6819    17.2005   -18.5567 C.3        1  LIG1  -0.0100
      6 C4        -18.7027    16.8370   -19.6748 C.3        1  LIG1  -0.1000
      7 C5        -17.7546    17.9855   -19.9054 C.ar       1  LIG1  -0.1300
      8 C6        -18.0747    18.9738   -20.8149 C.ar       1  LIG1  -0.0900
      9 C7        -17.2050    20.0280   -21.0277 C.ar       1  LIG1  -0.1200
     10 C8        -16.0128    20.0961   -20.3309 C.ar       1  LIG1  -0.0800
     11 C9        -15.6864    19.1107   -19.4196 C.ar       1  LIG1  -0.1100
     12 C10       -16.5603    18.0541   -19.1991 C.ar       1  LIG1   0.1500
     13 N2        -16.2332    17.0550   -18.2775 N.am       1  LIG1  -0.6800
     14 C11       -15.4753    17.3512   -17.2031 C.2        1  LIG1   0.5600
     15 O1        -15.0760    18.4877   -17.0353 O.2        1  LIG1  -0.4800
     16 C12       -15.1304    16.2978   -16.2314 C.2        1  LIG1   0.0500
     17 C13       -15.5825    15.0362   -16.4418 C.2        1  LIG1  -0.0600
     18 C14       -15.2459    13.9836   -15.4836 C.ar       1  LIG1  -0.0300
     19 C15       -15.6839    12.6690   -15.6513 C.ar       1  LIG1  -0.1000
     20 C16       -15.3390    11.7136   -14.7197 C.ar       1  LIG1  -0.0800
     21 C17       -14.5623    12.0458   -13.6185 C.ar       1  LIG1  -0.1100
     22 C18       -14.1190    13.3385   -13.4327 C.ar       1  LIG1  -0.0500
     23 C19       -14.4540    14.3207   -14.3612 C.ar       1  LIG1  -0.1400
     24 C20       -14.0070    15.7129   -14.2106 C.2        1  LIG1   0.5600
     25 O2        -13.3248    16.0388   -13.2564 O.2        1  LIG1  -0.5200
     26 N3        -14.3543    16.6241   -15.1404 N.am       1  LIG1  -0.6300
     27 H2        -22.1119    17.3163   -17.5451 H          1  LIG1   0.1300
     28 H3        -22.2317    15.5993   -17.0915 H          1  LIG1   0.1200
     29 H4        -20.9919    16.6334   -16.3421 H          1  LIG1   0.1200
     30 H5        -20.6550    15.5477   -20.3634 H          1  LIG1   0.1200
     31 H6        -22.0385    14.9761   -19.4000 H          1  LIG1   0.1200
     32 H7        -21.9186    16.6932   -19.8535 H          1  LIG1   0.1300
     33 H8        -20.2479    18.0869   -18.8434 H          1  LIG1   0.1400
     34 H9        -19.1278    17.4040   -17.6403 H          1  LIG1   0.1200
     35 H10       -18.1367    15.9505   -19.3880 H          1  LIG1   0.0900
     36 H11       -19.2567    16.6334   -20.5910 H          1  LIG1   0.1100
     37 H12       -19.0051    18.9235   -21.3611 H          1  LIG1   0.1300
     38 H13       -17.4577    20.7995   -21.7400 H          1  LIG1   0.1300
     39 H14       -15.3358    20.9203   -20.4996 H          1  LIG1   0.1400
     40 H15       -14.7547    19.1641   -18.8761 H          1  LIG1   0.1500
     41 H16       -16.5516    16.1486   -18.4113 H          1  LIG1   0.4000
     42 H17       -16.1858    14.8111   -17.3089 H          1  LIG1   0.1700
     43 H18       -16.2893    12.4023   -16.5050 H          1  LIG1   0.1400
     44 H19       -15.6770    10.6959   -14.8478 H          1  LIG1   0.1400
     45 H20       -14.3024    11.2835   -12.8989 H          1  LIG1   0.1400
     46 H21       -13.5155    13.5875   -12.5723 H          1  LIG1   0.1400
     47 H22       -14.0552    17.5407   -15.0343 H          1  LIG1   0.4000
@<TRIPOS>BOND
     1    1    2 1
     2    1   27 1
     3    1   28 1
     4    1   29 1
     5    2    3 1
     6    2    4 1
     7    2    5 1
     8    4   30 1
     9    4   31 1
    10    4   32 1
    11    5    6 1
    12    5   33 1
    13    5   34 1
    14    6    7 1
    15    6   35 1
    16    6   36 1
    17    7   12 ar
    18    7    8 ar
    19    8    9 ar
    20    8   37 1
    21    9   10 ar
    22    9   38 1
    23   10   11 ar
    24   10   39 1
    25   11   12 ar
    26   11   40 1
    27   12   13 1
    28   13   14 am
    29   13   41 1
    30   14   15 2
    31   14   16 1
    32   16   26 1
    33   16   17 2
    34   17   18 1
    35   17   42 1
    36   18   23 ar
    37   18   19 ar
    38   19   20 ar
    39   19   43 1
    40   20   21 ar
    41   20   44 1
    42   21   22 ar
    43   21   45 1
    44   22   23 ar
    45   22   46 1
    46   23   24 1
    47   24   25 2
    48   24   26 am
    49   26   47 1
##########                 Name:     ZINC000348548282
##########          Protonation:                 none
##########               SMILES:   CC1=NN(C2=CC=C(Cl)C=C2)C=C1C[N@H+](C)[C@H]1CCC[C@H]1O
##########            Long Name:   NO_LONG_NAME
##########          FlexRecCode: 1
##########               Number:                 8843
##########   Ligand Source File: /nfs/db/export/3D/DG/ADMO/DGADMO.xary.db2.gz
##########                 Rank:                    1
##########               Setnum:                   17
##########             Matchnum:                    1
##########                Cloud:                    1
##########        Electrostatic:           -42.473728
##########                 Gist:             0.000000
##########        Van der Waals:           -28.953588
##########  Ligand Polar Desolv:            14.000574
########## Ligand Apolar Desolv:            -5.287587
##########      Internal Energy:             0.000000
##########      Receptor Energy:             0.000000
########## Receptor Desolvation:             0.000000
########## Receptor Hydrophobic:             0.000000
##########         Total Energy:           -62.714329
##########        Ligand Charge:             1.000000
##########            Arbitrary:    +999.9990
##########        Ligand Energy:             0.000000

@<TRIPOS>MOLECULE
 ZINC000348548282      none
   45    47     0     0     0



@<TRIPOS>ATOM
      1 C1        -14.7213    18.5646   -15.9910 C.3        1  LIG1  -0.0900
      2 C2        -15.2396    17.1864   -15.6697 C.2        1  LIG1   0.1100
      3 N1        -14.6088    16.2715   -14.9785 N.2        1  LIG1  -0.2700
      4 N2        -15.4265    15.1364   -14.9055 N.pl3      1  LIG1  -0.3000
      5 C3        -15.1152    13.9358   -14.2515 C.ar       1  LIG1   0.1400
      6 C4        -16.0203    12.8830   -14.2625 C.ar       1  LIG1  -0.1200
      7 C5        -15.7114    11.7015   -13.6178 C.ar       1  LIG1  -0.0800
      8 C6        -14.5010    11.5665   -12.9606 C.ar       1  LIG1  -0.0300
      9 Cl1       -14.1156    10.0800   -12.1509 Cl         1  LIG1  -0.0400
     10 C7        -13.5972    12.6144   -12.9481 C.ar       1  LIG1  -0.0800
     11 C8        -13.8989    13.7958   -13.5968 C.ar       1  LIG1  -0.0900
     12 C9        -16.5692    15.4036   -15.5772 C.2        1  LIG1   0.1000
     13 C10       -16.4807    16.6670   -16.0540 C.2        1  LIG1  -0.3000
     14 C11       -17.5292    17.3841   -16.8648 C.3        1  LIG1   0.0900
     15 N3        -18.0483    16.4820   -17.9015 N.4        1  LIG1  -0.3700
     16 H1        -18.7278    15.8572   -17.4942 H          1  LIG1   0.4300
     17 C12       -16.9419    15.6997   -18.4686 C.3        1  LIG1  -0.0500
     18 C13       -18.6845    17.2721   -18.9641 C.3        1  LIG1   0.0300
     19 H2        -17.9633    17.9534   -19.4155 H          1  LIG1   0.1500
     20 C14       -19.2967    16.3405   -20.0394 C.3        1  LIG1  -0.1400
     21 C15       -20.3854    17.2332   -20.6852 C.3        1  LIG1  -0.1200
     22 C16       -20.9746    18.0275   -19.5012 C.3        1  LIG1  -0.1600
     23 C17       -19.8909    18.0551   -18.4062 C.3        1  LIG1   0.0900
     24 H3        -19.6048    19.0843   -18.1898 H          1  LIG1   0.0900
     25 O1        -20.3770    17.4229   -17.2204 O.3        1  LIG1  -0.5800
     26 H4        -13.7271    18.6879   -15.5617 H          1  LIG1   0.0800
     27 H5        -14.6682    18.6898   -17.0725 H          1  LIG1   0.0900
     28 H6        -15.3938    19.3127   -15.5713 H          1  LIG1   0.0900
     29 H7        -16.9653    12.9881   -14.7748 H          1  LIG1   0.1400
     30 H8        -16.4151    10.8823   -13.6261 H          1  LIG1   0.1500
     31 H9        -12.6534    12.5067   -12.4342 H          1  LIG1   0.1500
     32 H10       -13.1934    14.6132   -13.5868 H          1  LIG1   0.1500
     33 H11       -17.4045    14.7312   -15.7059 H          1  LIG1   0.1900
     34 H12       -18.3447    17.6940   -16.2112 H          1  LIG1   0.1400
     35 H13       -17.0870    18.2623   -17.3353 H          1  LIG1   0.1300
     36 H14       -17.3271    15.0304   -19.2378 H          1  LIG1   0.1200
     37 H15       -16.2077    16.3746   -18.9085 H          1  LIG1   0.1200
     38 H16       -16.4699    15.1135   -17.6800 H          1  LIG1   0.1200
     39 H17       -18.5455    16.0541   -20.7754 H          1  LIG1   0.1000
     40 H18       -19.7430    15.4594   -19.5784 H          1  LIG1   0.0900
     41 H19       -19.9406    17.9097   -21.4149 H          1  LIG1   0.0800
     42 H20       -21.1548    16.6186   -21.1527 H          1  LIG1   0.0900
     43 H21       -21.2117    19.0441   -19.8148 H          1  LIG1   0.0900
     44 H22       -21.8713    17.5324   -19.1287 H          1  LIG1   0.0900
     45 H23       -20.6711    16.5112   -17.3529 H          1  LIG1   0.4100
@<TRIPOS>BOND
     1    1    2 1
     2    1   26 1
     3    1   27 1
     4    1   28 1
     5    2   13 1
     6    2    3 2
     7    3    4 1
     8    4    5 1
     9    4   12 1
    10    5   11 ar
    11    5    6 ar
    12    6    7 ar
    13    6   29 1
    14    7    8 ar
    15    7   30 1
    16    8    9 1
    17    8   10 ar
    18   10   11 ar
    19   10   31 1
    20   11   32 1
    21   12   13 2
    22   12   33 1
    23   13   14 1
    24   14   15 1
    25   14   34 1
    26   14   35 1
    27   15   16 1
    28   15   17 1
    29   15   18 1
    30   17   36 1
    31   17   37 1
    32   17   38 1
    33   18   19 1
    34   18   23 1
    35   18   20 1
    36   20   21 1
    37   20   39 1
    38   20   40 1
    39   21   22 1
    40   21   41 1
    41   21   42 1
    42   22   23 1
    43   22   43 1
    44   22   44 1
    45   23   24 1
    46   23   25 1
    47   25   45 1
##########                 Name:     ZINC000187715995
##########          Protonation:                 none
##########               SMILES:   COC1=CC=CC=C1CNC(=O)[C@H](C)N1CC[N@@H+](CCO)[C@@H](C)C1
##########            Long Name:   NO_LONG_NAME
##########          FlexRecCode: 1
##########               Number:                 8857
##########   Ligand Source File: /nfs/db/export/3D/EC/ADMO/ECADMO.xob.db2.gz
##########                 Rank:                    1
##########               Setnum:                  300
##########             Matchnum:                    1
##########                Cloud:                    1
##########        Electrostatic:           -39.519260
##########                 Gist:             0.000000
##########        Van der Waals:           -32.749008
##########  Ligand Polar Desolv:            10.522982
########## Ligand Apolar Desolv:            -1.005207
##########      Internal Energy:             0.000000
##########      Receptor Energy:             0.000000
########## Receptor Desolvation:             0.000000
########## Receptor Hydrophobic:             0.000000
##########         Total Energy:           -62.750488
##########        Ligand Charge:             1.000000
##########            Arbitrary:    +999.9990
##########        Ligand Energy:             0.000000

@<TRIPOS>MOLECULE
 ZINC000187715995      none
   54    55     0     0     0



@<TRIPOS>ATOM
      1 C1        -13.2020    14.4082   -11.6859 C.3        1  LIG1   0.0200
      2 O1        -14.0170    14.9222   -12.7411 O.3        1  LIG1  -0.3100
      3 C2        -14.4735    14.0299   -13.6588 C.ar       1  LIG1   0.1400
      4 C3        -14.1486    12.6863   -13.5427 C.ar       1  LIG1  -0.2100
      5 C4        -14.6143    11.7810   -14.4768 C.ar       1  LIG1  -0.0600
      6 C5        -15.4032    12.2133   -15.5265 C.ar       1  LIG1  -0.1600
      7 C6        -15.7281    13.5522   -15.6447 C.ar       1  LIG1  -0.0600
      8 C7        -15.2702    14.4603   -14.7102 C.ar       1  LIG1  -0.1500
      9 C8        -15.6250    15.9192   -14.8392 C.3        1  LIG1   0.1700
     10 N1        -15.4573    16.3412   -16.2321 N.am       1  LIG1  -0.7100
     11 C9        -15.7189    17.6150   -16.5864 C.2        1  LIG1   0.4900
     12 O2        -16.0931    18.4118   -15.7522 O.2        1  LIG1  -0.5500
     13 C10       -15.5462    18.0491   -18.0193 C.3        1  LIG1   0.0700
     14 H1        -14.7581    17.4579   -18.4855 H          1  LIG1   0.1200
     15 C11       -15.1651    19.5304   -18.0609 C.3        1  LIG1  -0.1500
     16 N2        -16.8059    17.8470   -18.7472 N.3        1  LIG1  -0.5100
     17 C12       -17.9540    18.3001   -17.9493 C.3        1  LIG1   0.0000
     18 C13       -19.2377    18.1282   -18.7643 C.3        1  LIG1  -0.0100
     19 N3        -19.4005    16.7148   -19.1294 N.4        1  LIG1  -0.3800
     20 H2        -19.4450    16.1541   -18.2917 H          1  LIG1   0.4300
     21 C14       -20.6418    16.5472   -19.8967 C.3        1  LIG1  -0.0100
     22 C15       -21.8329    16.5054   -18.9372 C.3        1  LIG1   0.0500
     23 O3        -21.6792    15.4082   -18.0346 O.3        1  LIG1  -0.5800
     24 C16       -18.2585    16.2836   -19.9464 C.3        1  LIG1   0.0300
     25 H3        -18.3870    15.2383   -20.2276 H          1  LIG1   0.1400
     26 C17       -18.1803    17.1451   -21.2084 C.3        1  LIG1  -0.1700
     27 C18       -16.9667    16.4401   -19.1412 C.3        1  LIG1   0.0200
     28 H4        -12.9059    15.2232   -11.0254 H          1  LIG1   0.0600
     29 H5        -13.7660    13.6676   -11.1188 H          1  LIG1   0.1000
     30 H6        -12.3121    13.9416   -12.1085 H          1  LIG1   0.0600
     31 H7        -13.5318    12.3483   -12.7232 H          1  LIG1   0.1300
     32 H8        -14.3617    10.7348   -14.3869 H          1  LIG1   0.1300
     33 H9        -15.7660    11.5040   -16.2559 H          1  LIG1   0.1300
     34 H10       -16.3442    13.8875   -16.4659 H          1  LIG1   0.1300
     35 H11       -16.6614    16.0691   -14.5364 H          1  LIG1   0.0800
     36 H12       -14.9702    16.5104   -14.1991 H          1  LIG1   0.0800
     37 H13       -15.1579    15.7039   -16.8993 H          1  LIG1   0.4000
     38 H14       -15.0401    19.8443   -19.0972 H          1  LIG1   0.0700
     39 H15       -15.9532    20.1215   -17.5946 H          1  LIG1   0.0800
     40 H16       -14.2303    19.6804   -17.5207 H          1  LIG1   0.0800
     41 H17       -18.0200    17.7066   -17.0374 H          1  LIG1   0.1000
     42 H18       -17.8253    19.3512   -17.6909 H          1  LIG1   0.1200
     43 H19       -20.0920    18.4503   -18.1691 H          1  LIG1   0.1300
     44 H20       -19.1770    18.7325   -19.6695 H          1  LIG1   0.1400
     45 H21       -20.7592    17.3841   -20.5852 H          1  LIG1   0.1400
     46 H22       -20.5972    15.6158   -20.4611 H          1  LIG1   0.1400
     47 H23       -21.8776    17.4367   -18.3727 H          1  LIG1   0.0900
     48 H24       -22.7540    16.3812   -19.5066 H          1  LIG1   0.0700
     49 H25       -20.8787    15.4529   -17.4941 H          1  LIG1   0.4100
     50 H26       -17.3330    16.8252   -21.8149 H          1  LIG1   0.0900
     51 H27       -19.1004    17.0336   -21.7823 H          1  LIG1   0.1000
     52 H28       -18.0520    18.1905   -20.9274 H          1  LIG1   0.0700
     53 H29       -16.1178    16.1344   -19.7526 H          1  LIG1   0.1200
     54 H30       -17.0165    15.8161   -18.2490 H          1  LIG1   0.0800
@<TRIPOS>BOND
     1    1    2 1
     2    1   28 1
     3    1   29 1
     4    1   30 1
     5    2    3 1
     6    3    8 ar
     7    3    4 ar
     8    4    5 ar
     9    4   31 1
    10    5    6 ar
    11    5   32 1
    12    6    7 ar
    13    6   33 1
    14    7    8 ar
    15    7   34 1
    16    8    9 1
    17    9   10 1
    18    9   35 1
    19    9   36 1
    20   10   11 am
    21   10   37 1
    22   11   12 2
    23   11   13 1
    24   13   14 1
    25   13   15 1
    26   13   16 1
    27   15   38 1
    28   15   39 1
    29   15   40 1
    30   16   27 1
    31   16   17 1
    32   17   18 1
    33   17   41 1
    34   17   42 1
    35   18   19 1
    36   18   43 1
    37   18   44 1
    38   19   20 1
    39   19   21 1
    40   19   24 1
    41   21   22 1
    42   21   45 1
    43   21   46 1
    44   22   23 1
    45   22   47 1
    46   22   48 1
    47   23   49 1
    48   24   25 1
    49   24   26 1
    50   24   27 1
    51   26   50 1
    52   26   51 1
    53   26   52 1
    54   27   53 1
    55   27   54 1
##########                 Name:     ZINC000532279339
##########          Protonation:                 none
##########               SMILES:   CC1=CC=C(CC[C@@H](C)[NH2+]C[C@H](CO)CC2=CC=CO2)C=C1
##########            Long Name:   NO_LONG_NAME
##########          FlexRecCode: 1
##########               Number:                 4828
##########   Ligand Source File: /nfs/db/export/3D/DG/ADRO/DGADRO.xaml.db2.gz
##########                 Rank:                    1
##########               Setnum:                   54
##########             Matchnum:                    1
##########                Cloud:                    1
##########        Electrostatic:           -40.846375
##########                 Gist:             0.000000
##########        Van der Waals:           -29.264671
##########  Ligand Polar Desolv:            11.101362
########## Ligand Apolar Desolv:            -6.230288
##########      Internal Energy:             0.000000
##########      Receptor Energy:             0.000000
########## Receptor Desolvation:             0.000000
########## Receptor Hydrophobic:             0.000000
##########         Total Energy:           -65.239975
##########        Ligand Charge:             1.000000
##########            Arbitrary:    +999.9990
##########        Ligand Energy:             0.000000

@<TRIPOS>MOLECULE
 ZINC000532279339      none
   50    51     0     0     0



@<TRIPOS>ATOM
      1 C1        -14.4332    10.7739   -12.1590 C.3        1  LIG1  -0.1200
      2 C2        -14.7702    11.8769   -13.1290 C.ar       1  LIG1  -0.0700
      3 C3        -15.6365    11.6338   -14.1785 C.ar       1  LIG1  -0.1200
      4 C4        -15.9456    12.6456   -15.0681 C.ar       1  LIG1  -0.1100
      5 C5        -15.3888    13.9007   -14.9082 C.ar       1  LIG1  -0.1100
      6 C6        -15.7255    15.0035   -15.8784 C.3        1  LIG1  -0.0900
      7 C7        -16.9546    15.7652   -15.3783 C.3        1  LIG1  -0.1400
      8 C8        -17.2963    16.8850   -16.3634 C.3        1  LIG1   0.0200
      9 H1        -18.1719    17.4276   -16.0071 H          1  LIG1   0.1400
     10 C9        -16.1110    17.8460   -16.4742 C.3        1  LIG1  -0.1800
     11 N1        -17.5824    16.3060   -17.6828 N.4        1  LIG1  -0.5000
     12 H2        -16.7148    16.0969   -18.1537 H          1  LIG1   0.4300
     13 H3        -18.1163    15.4574   -17.5691 H          1  LIG1   0.4200
     14 C10       -18.3542    17.2668   -18.4821 C.3        1  LIG1  -0.0100
     15 C11       -18.6523    16.6638   -19.8564 C.3        1  LIG1  -0.1100
     16 H4        -18.9004    15.6083   -19.7439 H          1  LIG1   0.1100
     17 C12       -17.4210    16.8054   -20.7534 C.3        1  LIG1   0.0600
     18 O1        -17.0956    18.1890   -20.9008 O.3        1  LIG1  -0.6000
     19 C13       -19.8334    17.4006   -20.4913 C.3        1  LIG1  -0.0300
     20 C14       -21.1220    16.8786   -19.9101 C.2        1  LIG1  -0.0400
     21 C15       -22.3585    17.2928   -20.2400 C.2        1  LIG1  -0.1900
     22 C16       -23.2649    16.5407   -19.4578 C.2        1  LIG1  -0.2100
     23 C17       -22.5280    15.7117   -18.6967 C.2        1  LIG1  -0.0200
     24 O2        -21.2311    15.9167   -18.9792 O.3        1  LIG1  -0.1800
     25 C18       -14.5237    14.1442   -13.8579 C.ar       1  LIG1  -0.1100
     26 C19       -14.2175    13.1335   -12.9659 C.ar       1  LIG1  -0.1200
     27 H5        -14.9591     9.8636   -12.4470 H          1  LIG1   0.0800
     28 H6        -13.3585    10.5927   -12.1740 H          1  LIG1   0.0700
     29 H7        -14.7382    11.0674   -11.1546 H          1  LIG1   0.0700
     30 H8        -16.0715    10.6531   -14.3034 H          1  LIG1   0.1300
     31 H9        -16.6218    12.4553   -15.8885 H          1  LIG1   0.1200
     32 H10       -14.8810    15.6882   -15.9574 H          1  LIG1   0.0700
     33 H11       -15.9377    14.5740   -16.8574 H          1  LIG1   0.0900
     34 H12       -17.7990    15.0806   -15.2992 H          1  LIG1   0.1100
     35 H13       -16.7423    16.1948   -14.3994 H          1  LIG1   0.0900
     36 H14       -16.3545    18.6437   -17.1761 H          1  LIG1   0.0800
     37 H15       -15.8987    18.2757   -15.4952 H          1  LIG1   0.0800
     38 H16       -15.2353    17.3035   -16.8304 H          1  LIG1   0.1100
     39 H17       -19.2914    17.4927   -17.9735 H          1  LIG1   0.1300
     40 H18       -17.7774    18.1835   -18.6051 H          1  LIG1   0.1300
     41 H19       -16.5796    16.2806   -20.3010 H          1  LIG1   0.0800
     42 H20       -17.6332    16.3758   -21.7324 H          1  LIG1   0.0700
     43 H21       -16.8945    18.6367   -20.0677 H          1  LIG1   0.4100
     44 H22       -19.7484    18.4677   -20.2866 H          1  LIG1   0.1100
     45 H23       -19.8276    17.2356   -21.5687 H          1  LIG1   0.1000
     46 H24       -22.6107    18.0545   -20.9631 H          1  LIG1   0.1500
     47 H25       -24.3420    16.6173   -19.4690 H          1  LIG1   0.1500
     48 H26       -22.9141    14.9994   -17.9827 H          1  LIG1   0.2100
     49 H27       -14.0890    15.1249   -13.7327 H          1  LIG1   0.1200
     50 H28       -13.5416    13.3237   -12.1454 H          1  LIG1   0.1300
@<TRIPOS>BOND
     1    1    2 1
     2    1   27 1
     3    1   28 1
     4    1   29 1
     5    2   26 ar
     6    2    3 ar
     7    3    4 ar
     8    3   30 1
     9    4    5 ar
    10    4   31 1
    11    5    6 1
    12    5   25 ar
    13    6    7 1
    14    6   32 1
    15    6   33 1
    16    7    8 1
    17    7   34 1
    18    7   35 1
    19    8    9 1
    20    8   10 1
    21    8   11 1
    22   10   36 1
    23   10   37 1
    24   10   38 1
    25   11   12 1
    26   11   13 1
    27   11   14 1
    28   14   15 1
    29   14   39 1
    30   14   40 1
    31   15   16 1
    32   15   17 1
    33   15   19 1
    34   17   18 1
    35   17   41 1
    36   17   42 1
    37   18   43 1
    38   19   20 1
    39   19   44 1
    40   19   45 1
    41   20   24 1
    42   20   21 2
    43   21   22 1
    44   21   46 1
    45   22   23 2
    46   22   47 1
    47   23   24 1
    48   23   48 1
    49   25   26 ar
    50   25   49 1
    51   26   50 1
##########                 Name:     ZINC000533866377
##########          Protonation:                 none
##########               SMILES:   COC1=CC=C(C)C=C1NC(=O)C[N@H+]1CC[C@@H](C2=NC=CN2C)C1
##########            Long Name:   NO_LONG_NAME
##########          FlexRecCode: 1
##########               Number:                 2459
##########   Ligand Source File: /nfs/db/export/3D/EE/ADMO/EEADMO.xapk.db2.gz
##########                 Rank:                    1
##########               Setnum:                   82
##########             Matchnum:                    1
##########                Cloud:                    1
##########        Electrostatic:           -39.862247
##########                 Gist:             0.000000
##########        Van der Waals:           -35.964699
##########  Ligand Polar Desolv:            16.013212
########## Ligand Apolar Desolv:            -5.349857
##########      Internal Energy:             0.000000
##########      Receptor Energy:             0.000000
########## Receptor Desolvation:             0.000000
########## Receptor Hydrophobic:             0.000000
##########         Total Energy:           -65.163597
##########        Ligand Charge:             1.000000
##########            Arbitrary:    +999.9990
##########        Ligand Energy:             0.000000

@<TRIPOS>MOLECULE
 ZINC000533866377      none
   49    51     0     0     0



@<TRIPOS>ATOM
      1 C1        -16.4646    11.2911   -15.6964 C.3        1  LIG1   0.0300
      2 O1        -16.3598    12.6915   -15.9610 O.3        1  LIG1  -0.3200
      3 C2        -15.5666    13.4191   -15.1303 C.ar       1  LIG1   0.1100
      4 C3        -14.8994    12.7981   -14.0873 C.ar       1  LIG1  -0.1800
      5 C4        -14.0933    13.5396   -13.2430 C.ar       1  LIG1  -0.0800
      6 C5        -13.9503    14.9008   -13.4366 C.ar       1  LIG1  -0.1000
      7 C6        -13.0704    15.7030   -12.5129 C.3        1  LIG1  -0.1100
      8 C7        -14.6120    15.5279   -14.4757 C.ar       1  LIG1  -0.0900
      9 C8        -15.4183    14.7901   -15.3296 C.ar       1  LIG1   0.1000
     10 N1        -16.0897    15.4235   -16.3839 N.am       1  LIG1  -0.6300
     11 C9        -16.4634    16.7131   -16.2668 C.2        1  LIG1   0.5000
     12 O2        -16.2186    17.3254   -15.2488 O.2        1  LIG1  -0.5100
     13 C10       -17.1856    17.3942   -17.4006 C.3        1  LIG1  -0.0200
     14 N2        -18.4416    16.6847   -17.6779 N.4        1  LIG1  -0.3800
     15 H1        -18.3003    15.6877   -17.6121 H          1  LIG1   0.4300
     16 C11       -19.4907    17.1148   -16.7283 C.3        1  LIG1   0.0000
     17 C12       -20.8226    17.1257   -17.5011 C.3        1  LIG1  -0.1300
     18 C13       -20.4558    16.7083   -18.9437 C.3        1  LIG1  -0.0100
     19 H2        -20.6226    15.6412   -19.0907 H          1  LIG1   0.1200
     20 C14       -21.2415    17.5121   -19.9476 C.2        1  LIG1   0.1800
     21 N3        -20.8698    18.6486   -20.4702 N.2        1  LIG1  -0.4800
     22 C15       -21.8146    19.0738   -21.3220 C.2        1  LIG1  -0.0200
     23 C16       -22.8096    18.1664   -21.3272 C.2        1  LIG1  -0.0300
     24 N4        -22.4441    17.1728   -20.4595 N.pl3      1  LIG1  -0.4500
     25 C17       -23.2171    15.9703   -20.1394 C.3        1  LIG1   0.0600
     26 C18       -18.9446    17.0427   -19.0288 C.3        1  LIG1   0.0100
     27 H3        -17.1257    10.8311   -16.4307 H          1  LIG1   0.0600
     28 H4        -15.4770    10.8344   -15.7600 H          1  LIG1   0.1100
     29 H5        -16.8712    11.1398   -14.6964 H          1  LIG1   0.0600
     30 H6        -15.0089    11.7349   -13.9333 H          1  LIG1   0.1400
     31 H7        -13.5744    13.0538   -12.4299 H          1  LIG1   0.1300
     32 H8        -13.0808    16.7492   -12.8188 H          1  LIG1   0.0700
     33 H9        -13.4432    15.6191   -11.4922 H          1  LIG1   0.0700
     34 H10       -12.0506    15.3210   -12.5598 H          1  LIG1   0.0700
     35 H11       -14.4985    16.5915   -14.6248 H          1  LIG1   0.1500
     36 H12       -16.2856    14.9337   -17.1980 H          1  LIG1   0.4200
     37 H13       -17.4043    18.4258   -17.1245 H          1  LIG1   0.1600
     38 H14       -16.5571    17.3820   -18.2912 H          1  LIG1   0.1600
     39 H15       -19.5494    16.4125   -15.8968 H          1  LIG1   0.1400
     40 H16       -19.2682    18.1154   -16.3575 H          1  LIG1   0.1300
     41 H17       -21.5186    16.4091   -17.0653 H          1  LIG1   0.1100
     42 H18       -21.2552    18.1262   -17.4951 H          1  LIG1   0.1200
     43 H19       -21.7830    19.9844   -21.9020 H          1  LIG1   0.1800
     44 H20       -23.7193    18.2117   -21.9076 H          1  LIG1   0.1800
     45 H21       -24.1462    15.9732   -20.7096 H          1  LIG1   0.0800
     46 H22       -22.6354    15.0852   -20.3968 H          1  LIG1   0.0900
     47 H23       -23.4452    15.9579   -19.0735 H          1  LIG1   0.1000
     48 H24       -18.7960    18.1046   -19.2246 H          1  LIG1   0.1500
     49 H25       -18.4593    16.4376   -19.7946 H          1  LIG1   0.1400
@<TRIPOS>BOND
     1    1    2 1
     2    1   27 1
     3    1   28 1
     4    1   29 1
     5    2    3 1
     6    3    9 ar
     7    3    4 ar
     8    4    5 ar
     9    4   30 1
    10    5    6 ar
    11    5   31 1
    12    6    7 1
    13    6    8 ar
    14    7   32 1
    15    7   33 1
    16    7   34 1
    17    8    9 ar
    18    8   35 1
    19    9   10 1
    20   10   11 am
    21   10   36 1
    22   11   12 2
    23   11   13 1
    24   13   14 1
    25   13   37 1
    26   13   38 1
    27   14   15 1
    28   14   26 1
    29   14   16 1
    30   16   17 1
    31   16   39 1
    32   16   40 1
    33   17   18 1
    34   17   41 1
    35   17   42 1
    36   18   19 1
    37   18   20 1
    38   18   26 1
    39   20   24 1
    40   20   21 2
    41   21   22 1
    42   22   23 2
    43   22   43 1
    44   23   24 1
    45   23   44 1
    46   24   25 1
    47   25   45 1
    48   25   46 1
    49   25   47 1
    50   26   48 1
    51   26   49 1
##########                 Name:     ZINC000130523596
##########          Protonation:                 none
##########               SMILES:   N#CCC[C@H]([NH2+]CC1=CN(C2=CC=CC=C2)N=C1)C1=CC=CC=C1
##########            Long Name:   NO_LONG_NAME
##########          FlexRecCode: 1
##########               Number:                 4836
##########   Ligand Source File: /nfs/db/export/3D/DI/EDMO/DIEDMO.xaa.db2.gz
##########                 Rank:                    1
##########               Setnum:                   77
##########             Matchnum:                    1
##########                Cloud:                    1
##########        Electrostatic:           -38.027416
##########                 Gist:             0.000000
##########        Van der Waals:           -36.982182
##########  Ligand Polar Desolv:            19.040888
########## Ligand Apolar Desolv:            -6.859464
##########      Internal Energy:             0.000000
##########      Receptor Energy:             0.000000
########## Receptor Desolvation:             0.000000
########## Receptor Hydrophobic:             0.000000
##########         Total Energy:           -62.828175
##########        Ligand Charge:             1.000000
##########            Arbitrary:    +999.9990
##########        Ligand Energy:             0.000000

@<TRIPOS>MOLECULE
 ZINC000130523596      none
   45    47     0     0     0



@<TRIPOS>ATOM
      1 N1        -17.0683    18.0834   -23.5548 N.1        1  LIG1  -0.3900
      2 C1        -17.6325    18.1363   -22.5702 C.1        1  LIG1   0.1800
      3 C2        -18.3636    18.2050   -21.2943 C.3        1  LIG1  -0.0300
      4 C3        -17.6263    17.3783   -20.2390 C.3        1  LIG1  -0.1400
      5 C4        -18.3863    17.4497   -18.9129 C.3        1  LIG1   0.0800
      6 H1        -18.4471    18.4872   -18.5845 H          1  LIG1   0.1600
      7 N2        -17.6786    16.6558   -17.8996 N.4        1  LIG1  -0.5100
      8 H2        -18.3124    16.4267   -17.1487 H          1  LIG1   0.4200
      9 H3        -17.3330    15.8058   -18.3193 H          1  LIG1   0.4300
     10 C5        -16.5508    17.4332   -17.3684 C.3        1  LIG1   0.0900
     11 C6        -15.8248    16.6188   -16.3289 C.2        1  LIG1  -0.3100
     12 C7        -16.1424    15.3632   -15.9367 C.2        1  LIG1   0.1000
     13 N3        -15.2512    14.9898   -14.9907 N.pl3      1  LIG1  -0.2900
     14 C8        -15.2248    13.7577   -14.3225 C.ar       1  LIG1   0.1300
     15 C9        -14.2521    13.5069   -13.3641 C.ar       1  LIG1  -0.1300
     16 C10       -14.2287    12.2920   -12.7076 C.ar       1  LIG1  -0.0900
     17 C11       -15.1724    11.3259   -13.0043 C.ar       1  LIG1  -0.1100
     18 C12       -16.1423    11.5727   -13.9583 C.ar       1  LIG1  -0.0900
     19 C13       -16.1747    12.7881   -14.6138 C.ar       1  LIG1  -0.1100
     20 N4        -14.3584    16.0519   -14.7974 N.2        1  LIG1  -0.2700
     21 C14       -14.6998    17.0252   -15.6031 C.2        1  LIG1   0.0800
     22 C15       -19.7768    16.8998   -19.1007 C.ar       1  LIG1  -0.1400
     23 C16       -20.8207    17.3837   -18.3345 C.ar       1  LIG1  -0.1200
     24 C17       -22.0962    16.8794   -18.5066 C.ar       1  LIG1  -0.1000
     25 C18       -22.3277    15.8911   -19.4455 C.ar       1  LIG1  -0.0900
     26 C19       -21.2842    15.4083   -20.2123 C.ar       1  LIG1  -0.1000
     27 C20       -20.0095    15.9156   -20.0432 C.ar       1  LIG1  -0.0900
     28 H4        -18.4244    19.2426   -20.9658 H          1  LIG1   0.1000
     29 H5        -19.3694    17.8073   -21.4301 H          1  LIG1   0.1300
     30 H6        -17.5655    16.3408   -20.5676 H          1  LIG1   0.1200
     31 H7        -16.6207    17.7760   -20.1033 H          1  LIG1   0.1000
     32 H8        -15.8661    17.6806   -18.1796 H          1  LIG1   0.1400
     33 H9        -16.9242    18.3515   -16.9151 H          1  LIG1   0.1400
     34 H10       -16.9610    14.7667   -16.3115 H          1  LIG1   0.1900
     35 H11       -13.5143    14.2609   -13.1324 H          1  LIG1   0.1300
     36 H12       -13.4722    12.0962   -11.9619 H          1  LIG1   0.1400
     37 H13       -15.1516    10.3763   -12.4900 H          1  LIG1   0.1400
     38 H14       -16.8782    10.8162   -14.1878 H          1  LIG1   0.1400
     39 H15       -16.9329    12.9805   -15.3587 H          1  LIG1   0.1400
     40 H16       -14.2022    17.9800   -15.6886 H          1  LIG1   0.2000
     41 H17       -20.6396    18.1554   -17.6009 H          1  LIG1   0.1200
     42 H18       -22.9115    17.2569   -17.9074 H          1  LIG1   0.1300
     43 H19       -23.3244    15.4972   -19.5794 H          1  LIG1   0.1400
     44 H20       -21.4652    14.6362   -20.9455 H          1  LIG1   0.1400
     45 H21       -19.1941    15.5381   -20.6423 H          1  LIG1   0.1400
@<TRIPOS>BOND
     1    1    2 3
     2    2    3 1
     3    3    4 1
     4    3   28 1
     5    3   29 1
     6    4    5 1
     7    4   30 1
     8    4   31 1
     9    5    6 1
    10    5    7 1
    11    5   22 1
    12    7    8 1
    13    7    9 1
    14    7   10 1
    15   10   11 1
    16   10   32 1
    17   10   33 1
    18   11   21 1
    19   11   12 2
    20   12   13 1
    21   12   34 1
    22   13   14 1
    23   13   20 1
    24   14   19 ar
    25   14   15 ar
    26   15   16 ar
    27   15   35 1
    28   16   17 ar
    29   16   36 1
    30   17   18 ar
    31   17   37 1
    32   18   19 ar
    33   18   38 1
    34   19   39 1
    35   20   21 2
    36   21   40 1
    37   22   27 ar
    38   22   23 ar
    39   23   24 ar
    40   23   41 1
    41   24   25 ar
    42   24   42 1
    43   25   26 ar
    44   25   43 1
    45   26   27 ar
    46   26   44 1
    47   27   45 1
##########                 Name:     ZINC000295094709
##########          Protonation:                 none
##########               SMILES:   C[C@@H]1[C@@H](O)CCC[N@@H+]1CC(=O)NC1=CC=C(Cl)C=C1C(F)(F)F
##########            Long Name:   NO_LONG_NAME
##########          FlexRecCode: 1
##########               Number:                 4535
##########   Ligand Source File: /nfs/db/export/3D/FG/ADMO/FGADMO.xbiv.db2.gz
##########                 Rank:                    1
##########               Setnum:                   54
##########             Matchnum:                    1
##########                Cloud:                    1
##########        Electrostatic:           -47.635410
##########                 Gist:             0.000000
##########        Van der Waals:           -29.397978
##########  Ligand Polar Desolv:            12.392842
########## Ligand Apolar Desolv:            -3.273089
##########      Internal Energy:             0.000000
##########      Receptor Energy:             0.000000
########## Receptor Desolvation:             0.000000
########## Receptor Hydrophobic:             0.000000
##########         Total Energy:           -67.913635
##########        Ligand Charge:             1.000000
##########            Arbitrary:    +999.9990
##########        Ligand Energy:             0.000000

@<TRIPOS>MOLECULE
 ZINC000295094709      none
   42    43     0     0     0



@<TRIPOS>ATOM
      1 C1        -18.7758    17.4793   -20.7171 C.3        1  LIG1  -0.1900
      2 C2        -19.2469    16.3239   -19.8315 C.3        1  LIG1   0.0400
      3 H1        -19.1968    15.3916   -20.3940 H          1  LIG1   0.1500
      4 C3        -20.6904    16.5758   -19.3906 C.3        1  LIG1   0.0900
      5 H2        -21.3318    16.6481   -20.2688 H          1  LIG1   0.1000
      6 O1        -21.1321    15.4968   -18.5644 O.3        1  LIG1  -0.5700
      7 C4        -20.7557    17.8860   -18.6004 C.3        1  LIG1  -0.1700
      8 C5        -19.7922    17.8032   -17.4131 C.3        1  LIG1  -0.1400
      9 C6        -18.3820    17.5057   -17.9273 C.3        1  LIG1  -0.0300
     10 N1        -18.3807    16.2291   -18.6503 N.4        1  LIG1  -0.3600
     11 H3        -18.7212    15.4992   -18.0425 H          1  LIG1   0.4400
     12 C7        -17.0113    15.9106   -19.0762 C.3        1  LIG1  -0.0300
     13 C8        -16.1189    15.8124   -17.8658 C.2        1  LIG1   0.5100
     14 O2        -15.1642    16.5521   -17.7547 O.2        1  LIG1  -0.5000
     15 N2        -16.3816    14.9026   -16.9068 N.am       1  LIG1  -0.6500
     16 C9        -15.5527    14.8114   -15.7827 C.ar       1  LIG1   0.1800
     17 C10       -14.8992    15.9403   -15.3071 C.ar       1  LIG1  -0.1000
     18 C11       -14.0817    15.8475   -14.1975 C.ar       1  LIG1  -0.0600
     19 C12       -13.9135    14.6309   -13.5605 C.ar       1  LIG1  -0.0400
     20 Cl1       -12.8854    14.5178   -12.1662 Cl         1  LIG1  -0.0300
     21 C13       -14.5638    13.5041   -14.0325 C.ar       1  LIG1  -0.0400
     22 C14       -15.3870    13.5926   -15.1376 C.ar       1  LIG1  -0.1900
     23 C15       -16.0949    12.3653   -15.6510 C.3        1  LIG1   0.5100
     24 F1        -16.8537    12.7014   -16.7771 F          1  LIG1  -0.1600
     25 F2        -15.1505    11.3932   -15.9982 F          1  LIG1  -0.1700
     26 F3        -16.9374    11.8616   -14.6542 F          1  LIG1  -0.1700
     27 H4        -18.8258    18.4118   -20.1548 H          1  LIG1   0.0900
     28 H5        -17.7480    17.2997   -21.0323 H          1  LIG1   0.1100
     29 H6        -19.4181    17.5494   -21.5950 H          1  LIG1   0.0900
     30 H7        -20.6061    15.3749   -17.7621 H          1  LIG1   0.4100
     31 H8        -20.4680    18.7158   -19.2460 H          1  LIG1   0.0900
     32 H9        -21.7710    18.0415   -18.2358 H          1  LIG1   0.1000
     33 H10       -19.7916    18.7527   -16.8776 H          1  LIG1   0.1100
     34 H11       -20.1103    17.0061   -16.7411 H          1  LIG1   0.0900
     35 H12       -18.0648    18.3036   -18.5987 H          1  LIG1   0.1300
     36 H13       -17.6933    17.4463   -17.0843 H          1  LIG1   0.1500
     37 H14       -17.0083    14.9592   -19.6080 H          1  LIG1   0.1700
     38 H15       -16.6439    16.6968   -19.7357 H          1  LIG1   0.1700
     39 H16       -17.1453    14.3110   -16.9957 H          1  LIG1   0.4200
     40 H17       -15.0296    16.8900   -15.8045 H          1  LIG1   0.1600
     41 H18       -13.5731    16.7254   -13.8272 H          1  LIG1   0.1600
     42 H19       -14.4309    12.5556   -13.5334 H          1  LIG1   0.1600
@<TRIPOS>BOND
     1    1    2 1
     2    1   27 1
     3    1   28 1
     4    1   29 1
     5    2    3 1
     6    2   10 1
     7    2    4 1
     8    4    5 1
     9    4    6 1
    10    4    7 1
    11    6   30 1
    12    7    8 1
    13    7   31 1
    14    7   32 1
    15    8    9 1
    16    8   33 1
    17    8   34 1
    18    9   10 1
    19    9   35 1
    20    9   36 1
    21   10   11 1
    22   10   12 1
    23   12   13 1
    24   12   37 1
    25   12   38 1
    26   13   14 2
    27   13   15 am
    28   15   16 1
    29   15   39 1
    30   16   22 ar
    31   16   17 ar
    32   17   18 ar
    33   17   40 1
    34   18   19 ar
    35   18   41 1
    36   19   20 1
    37   19   21 ar
    38   21   22 ar
    39   21   42 1
    40   22   23 1
    41   23   24 1
    42   23   25 1
    43   23   26 1
##########                 Name:     ZINC000185873939
##########          Protonation:                 none
##########               SMILES:   CC1=CC=CC(OCC[NH2+][C@@H](CC2=CC=C(Cl)C=C2)C(N)=O)=C1
##########            Long Name:   NO_LONG_NAME
##########          FlexRecCode: 1
##########               Number:                 9967
##########   Ligand Source File: /nfs/db/export/3D/EF/ADRO/EFADRO.xbrk.db2.gz
##########                 Rank:                    1
##########               Setnum:                   86
##########             Matchnum:                    1
##########                Cloud:                    1
##########        Electrostatic:           -41.869633
##########                 Gist:             0.000000
##########        Van der Waals:           -31.116673
##########  Ligand Polar Desolv:            13.384649
########## Ligand Apolar Desolv:            -3.406074
##########      Internal Energy:             0.000000
##########      Receptor Energy:             0.000000
########## Receptor Desolvation:             0.000000
########## Receptor Hydrophobic:             0.000000
##########         Total Energy:           -63.007729
##########        Ligand Charge:             1.000000
##########            Arbitrary:    +999.9990
##########        Ligand Energy:             0.000000

@<TRIPOS>MOLECULE
 ZINC000185873939      none
   45    46     0     0     0



@<TRIPOS>ATOM
      1 C1        -13.6378    14.4334   -11.8787 C.3        1  LIG1  -0.1200
      2 C2        -14.5175    13.9071   -12.9833 C.ar       1  LIG1  -0.0400
      3 C3        -14.8389    12.5634   -13.0293 C.ar       1  LIG1  -0.1400
      4 C4        -15.6458    12.0773   -14.0417 C.ar       1  LIG1  -0.0700
      5 C5        -16.1328    12.9337   -15.0097 C.ar       1  LIG1  -0.2100
      6 C6        -15.8116    14.2829   -14.9658 C.ar       1  LIG1   0.1200
      7 O1        -16.2898    15.1277   -15.9169 O.3        1  LIG1  -0.3300
      8 C7        -16.5137    16.4840   -15.5265 C.3        1  LIG1   0.0300
      9 C8        -17.0480    17.2770   -16.7209 C.3        1  LIG1  -0.0100
     10 N1        -18.3124    16.6836   -17.1764 N.4        1  LIG1  -0.4900
     11 H1        -18.1542    15.7260   -17.4520 H          1  LIG1   0.4400
     12 H2        -18.9862    16.7107   -16.4259 H          1  LIG1   0.4300
     13 C9        -18.8254    17.4449   -18.3232 C.3        1  LIG1   0.0100
     14 H3        -18.6645    18.5095   -18.1538 H          1  LIG1   0.1700
     15 C10       -18.0885    17.0133   -19.5926 C.3        1  LIG1  -0.0900
     16 C11       -18.2335    18.0819   -20.6454 C.ar       1  LIG1  -0.1300
     17 C12       -19.3005    18.0463   -21.5237 C.ar       1  LIG1  -0.0900
     18 C13       -19.4340    19.0261   -22.4894 C.ar       1  LIG1  -0.1000
     19 C14       -18.4994    20.0425   -22.5770 C.ar       1  LIG1  -0.0200
     20 Cl1       -18.6668    21.2737   -23.7894 Cl         1  LIG1  -0.0400
     21 C15       -17.4319    20.0775   -21.6978 C.ar       1  LIG1  -0.1000
     22 C16       -17.3025    19.1004   -20.7289 C.ar       1  LIG1  -0.1200
     23 C17       -20.3001    17.1790   -18.4833 C.2        1  LIG1   0.5200
     24 N2        -20.7385    15.9236   -18.7035 N.am       1  LIG1  -0.8200
     25 O2        -21.0924    18.0945   -18.4142 O.2        1  LIG1  -0.5200
     26 C18       -15.0067    14.7689   -13.9461 C.ar       1  LIG1  -0.1500
     27 H4        -13.3517    13.6134   -11.2201 H          1  LIG1   0.0800
     28 H5        -12.7429    14.8825   -12.3096 H          1  LIG1   0.0700
     29 H6        -14.1825    15.1850   -11.3073 H          1  LIG1   0.0700
     30 H7        -14.4588    11.8920   -12.2735 H          1  LIG1   0.1300
     31 H8        -15.8952    11.0270   -14.0756 H          1  LIG1   0.1300
     32 H9        -16.7627    12.5535   -15.8004 H          1  LIG1   0.1300
     33 H10       -17.2417    16.5133   -14.7157 H          1  LIG1   0.0900
     34 H11       -15.5756    16.9244   -15.1883 H          1  LIG1   0.1100
     35 H12       -17.2188    18.3115   -16.4230 H          1  LIG1   0.1700
     36 H13       -16.3200    17.2477   -17.5314 H          1  LIG1   0.1400
     37 H14       -17.0323    16.8662   -19.3674 H          1  LIG1   0.1100
     38 H15       -18.5150    16.0803   -19.9608 H          1  LIG1   0.1300
     39 H16       -20.0297    17.2527   -21.4553 H          1  LIG1   0.1400
     40 H17       -20.2674    18.9980   -23.1756 H          1  LIG1   0.1500
     41 H18       -16.7019    20.8706   -21.7659 H          1  LIG1   0.1400
     42 H19       -16.4692    19.1279   -20.0423 H          1  LIG1   0.1300
     43 H20       -20.1047    15.1914   -18.7588 H          1  LIG1   0.4100
     44 H21       -21.6878    15.7525   -18.8066 H          1  LIG1   0.4300
     45 H22       -14.7552    15.8187   -13.9098 H          1  LIG1   0.1300
@<TRIPOS>BOND
     1    1    2 1
     2    1   27 1
     3    1   28 1
     4    1   29 1
     5    2   26 ar
     6    2    3 ar
     7    3    4 ar
     8    3   30 1
     9    4    5 ar
    10    4   31 1
    11    5    6 ar
    12    5   32 1
    13    6    7 1
    14    6   26 ar
    15    7    8 1
    16    8    9 1
    17    8   33 1
    18    8   34 1
    19    9   10 1
    20    9   35 1
    21    9   36 1
    22   10   11 1
    23   10   12 1
    24   10   13 1
    25   13   14 1
    26   13   15 1
    27   13   23 1
    28   15   16 1
    29   15   37 1
    30   15   38 1
    31   16   22 ar
    32   16   17 ar
    33   17   18 ar
    34   17   39 1
    35   18   19 ar
    36   18   40 1
    37   19   20 1
    38   19   21 ar
    39   21   22 ar
    40   21   41 1
    41   22   42 1
    42   23   24 am
    43   23   25 2
    44   24   43 1
    45   24   44 1
    46   26   45 1
##########                 Name:     ZINC000160409471
##########          Protonation:                 none
##########               SMILES:   CC(C)C[N@H+]1CCC[C@@H]1CNC(=O)C1=NN(C2=CC=CC=C2)C=C1
##########            Long Name:   NO_LONG_NAME
##########          FlexRecCode: 1
##########               Number:                 7186
##########   Ligand Source File: /nfs/db/export/3D/EF/ADMO/EFADMO.xail.db2.gz
##########                 Rank:                    1
##########               Setnum:                   19
##########             Matchnum:                    1
##########                Cloud:                    1
##########        Electrostatic:           -32.262955
##########                 Gist:             0.000000
##########        Van der Waals:           -35.347271
##########  Ligand Polar Desolv:            11.182890
########## Ligand Apolar Desolv:            -5.982629
##########      Internal Energy:             0.000000
##########      Receptor Energy:             0.000000
########## Receptor Desolvation:             0.000000
########## Receptor Hydrophobic:             0.000000
##########         Total Energy:           -62.409969
##########        Ligand Charge:             1.000000
##########            Arbitrary:    +999.9990
##########        Ligand Energy:             0.000000

@<TRIPOS>MOLECULE
 ZINC000160409471      none
   51    53     0     0     0



@<TRIPOS>ATOM
      1 C1        -21.2161    16.4077   -17.8841 C.3        1  LIG1  -0.1700
      2 C2        -20.8123    16.2611   -19.3525 C.3        1  LIG1  -0.1200
      3 C3        -22.0429    16.4519   -20.2415 C.3        1  LIG1  -0.1500
      4 C4        -19.7626    17.3183   -19.7008 C.3        1  LIG1  -0.0100
      5 N1        -18.5811    17.1351   -18.8474 N.4        1  LIG1  -0.4000
      6 H1        -18.8715    16.9039   -17.9092 H          1  LIG1   0.4200
      7 C5        -17.7394    16.0473   -19.3900 C.3        1  LIG1  -0.0200
      8 C6        -16.6684    16.7662   -20.2478 C.3        1  LIG1  -0.1400
      9 C7        -16.3969    18.0410   -19.4064 C.3        1  LIG1  -0.1300
     10 C8        -17.7850    18.3759   -18.8288 C.3        1  LIG1   0.0100
     11 H2        -18.2685    19.1360   -19.4427 H          1  LIG1   0.1500
     12 C9        -17.6427    18.8810   -17.3917 C.3        1  LIG1   0.1000
     13 N2        -16.9703    17.8630   -16.5807 N.am       1  LIG1  -0.7500
     14 C10       -15.8023    18.1495   -15.9721 C.2        1  LIG1   0.6200
     15 O1        -15.3069    19.2527   -16.0962 O.2        1  LIG1  -0.5000
     16 C11       -15.1246    17.1233   -15.1547 C.2        1  LIG1  -0.0200
     17 N3        -15.5423    15.8914   -14.9399 N.2        1  LIG1  -0.2600
     18 N4        -14.7115    15.2685   -14.1833 N.pl3      1  LIG1  -0.2200
     19 C12       -14.8516    13.9403   -13.7596 C.ar       1  LIG1   0.1200
     20 C13       -13.8919    13.3683   -12.9350 C.ar       1  LIG1  -0.1200
     21 C14       -14.0329    12.0589   -12.5190 C.ar       1  LIG1  -0.0900
     22 C15       -15.1282    11.3176   -12.9229 C.ar       1  LIG1  -0.1100
     23 C16       -16.0856    11.8845   -13.7441 C.ar       1  LIG1  -0.1000
     24 C17       -15.9533    13.1952   -14.1587 C.ar       1  LIG1  -0.1100
     25 C18       -13.6769    16.0854   -13.8547 C.2        1  LIG1  -0.0100
     26 C19       -13.9011    17.2754   -14.4596 C.2        1  LIG1  -0.1600
     27 H3        -20.3395    16.2716   -17.2509 H          1  LIG1   0.0800
     28 H4        -21.6328    17.4014   -17.7194 H          1  LIG1   0.0500
     29 H5        -21.9640    15.6545   -17.6359 H          1  LIG1   0.0700
     30 H6        -20.3956    15.2674   -19.5173 H          1  LIG1   0.0900
     31 H7        -21.7550    16.3474   -21.2876 H          1  LIG1   0.0800
     32 H8        -22.7906    15.6986   -19.9935 H          1  LIG1   0.0700
     33 H9        -22.4595    17.4455   -20.0767 H          1  LIG1   0.0700
     34 H10       -19.4750    17.2140   -20.7469 H          1  LIG1   0.1400
     35 H11       -20.1791    18.3120   -19.5360 H          1  LIG1   0.1300
     36 H12       -17.2667    15.4928   -18.5792 H          1  LIG1   0.1300
     37 H13       -18.3365    15.3789   -20.0103 H          1  LIG1   0.1400
     38 H14       -15.7679    16.1587   -20.3377 H          1  LIG1   0.1200
     39 H15       -17.0636    17.0237   -21.2304 H          1  LIG1   0.1000
     40 H16       -15.6861    17.8312   -18.6071 H          1  LIG1   0.1100
     41 H17       -16.0375    18.8517   -20.0401 H          1  LIG1   0.1200
     42 H18       -17.0535    19.7979   -17.3855 H          1  LIG1   0.1000
     43 H19       -18.6308    19.0813   -16.9774 H          1  LIG1   0.1200
     44 H20       -17.3658    16.9828   -16.4816 H          1  LIG1   0.4000
     45 H21       -13.0361    13.9465   -12.6195 H          1  LIG1   0.1400
     46 H22       -13.2867    11.6132   -11.8780 H          1  LIG1   0.1400
     47 H23       -15.2360    10.2937   -12.5966 H          1  LIG1   0.1400
     48 H24       -16.9398    11.3029   -14.0581 H          1  LIG1   0.1400
     49 H25       -16.7015    13.6375   -14.7998 H          1  LIG1   0.1300
     50 H26       -12.8323    15.8318   -13.2311 H          1  LIG1   0.1900
     51 H27       -13.2800    18.1578   -14.4156 H          1  LIG1   0.1700
@<TRIPOS>BOND
     1    1    2 1
     2    1   27 1
     3    1   28 1
     4    1   29 1
     5    2    3 1
     6    2    4 1
     7    2   30 1
     8    3   31 1
     9    3   32 1
    10    3   33 1
    11    4    5 1
    12    4   34 1
    13    4   35 1
    14    5    6 1
    15    5   10 1
    16    5    7 1
    17    7    8 1
    18    7   36 1
    19    7   37 1
    20    8    9 1
    21    8   38 1
    22    8   39 1
    23    9   10 1
    24    9   40 1
    25    9   41 1
    26   10   11 1
    27   10   12 1
    28   12   13 1
    29   12   42 1
    30   12   43 1
    31   13   14 am
    32   13   44 1
    33   14   15 2
    34   14   16 1
    35   16   26 1
    36   16   17 2
    37   17   18 1
    38   18   19 1
    39   18   25 1
    40   19   24 ar
    41   19   20 ar
    42   20   21 ar
    43   20   45 1
    44   21   22 ar
    45   21   46 1
    46   22   23 ar
    47   22   47 1
    48   23   24 ar
    49   23   48 1
    50   24   49 1
    51   25   26 2
    52   25   50 1
    53   26   51 1
##########                 Name:     ZINC000092920544
##########          Protonation:                 none
##########               SMILES:   CC[C@@H](CNC1=CC(N2C=CC=N2)=NC(N)=[NH+]1)OC1=CC=CC(F)=C1
##########            Long Name:   NO_LONG_NAME
##########          FlexRecCode: 1
##########               Number:                 8621
##########   Ligand Source File: /nfs/db/export/3D/EF/ADRO/EFADRO.xaar.db2.gz
##########                 Rank:                    1
##########               Setnum:                   63
##########             Matchnum:                    1
##########                Cloud:                    1
##########        Electrostatic:           -42.256710
##########                 Gist:             0.000000
##########        Van der Waals:           -32.774158
##########  Ligand Polar Desolv:            11.020087
########## Ligand Apolar Desolv:            -4.944404
##########      Internal Energy:             0.000000
##########      Receptor Energy:             0.000000
########## Receptor Desolvation:             0.000000
########## Receptor Hydrophobic:             0.000000
##########         Total Energy:           -68.955185
##########        Ligand Charge:             1.000000
##########            Arbitrary:    +999.9990
##########        Ligand Energy:             0.000000

@<TRIPOS>MOLECULE
 ZINC000092920544      none
   45    47     0     0     0



@<TRIPOS>ATOM
      1 C1        -22.5435    17.6101   -21.2083 C.3        1  LIG1  -0.1600
      2 C2        -21.6814    16.9591   -20.1249 C.3        1  LIG1  -0.1400
      3 C3        -20.3185    17.6527   -20.0725 C.3        1  LIG1   0.0700
      4 H1        -20.4569    18.7086   -19.8409 H          1  LIG1   0.1000
      5 C4        -19.4564    17.0016   -18.9890 C.3        1  LIG1   0.1100
      6 N1        -18.3818    17.9195   -18.6031 N.pl3      1  LIG1  -0.6800
      7 C5        -17.4674    17.5462   -17.6308 C.ar       1  LIG1   0.5100
      8 C6        -16.4449    18.4142   -17.2524 C.ar       1  LIG1  -0.3100
      9 C7        -15.5519    17.9971   -16.2733 C.ar       1  LIG1   0.5600
     10 N2        -14.5122    18.8334   -15.8623 N.pl3      1  LIG1  -0.3400
     11 C8        -13.5739    18.5424   -14.9234 C.2        1  LIG1   0.0700
     12 C9        -12.7519    19.6114   -14.8212 C.2        1  LIG1  -0.2300
     13 C10       -13.1971    20.5862   -15.7220 C.2        1  LIG1   0.1100
     14 N3        -14.2462    20.1201   -16.3486 N.2        1  LIG1  -0.2800
     15 N4        -15.7002    16.7915   -15.7323 N.ar       1  LIG1  -0.5800
     16 C11       -16.6837    15.9916   -16.1157 C.ar       1  LIG1   0.6900
     17 N5        -16.8057    14.7442   -15.5288 N.pl3      1  LIG1  -0.7900
     18 N6        -17.5570    16.3565   -17.0422 N.ar       1  LIG1  -0.5900
     19 H2        -18.2656    15.7464   -17.2999 H          1  LIG1   0.4400
     20 O1        -19.6694    17.5238   -21.3390 O.3        1  LIG1  -0.3000
     21 C12       -18.8228    18.5227   -21.7028 C.ar       1  LIG1   0.1500
     22 C13       -17.4861    18.2451   -21.9488 C.ar       1  LIG1  -0.2200
     23 C14       -16.6262    19.2616   -22.3187 C.ar       1  LIG1  -0.0500
     24 C15       -17.0960    20.5552   -22.4436 C.ar       1  LIG1  -0.1800
     25 C16       -18.4301    20.8362   -22.1985 C.ar       1  LIG1   0.1500
     26 F1        -18.8874    22.1015   -22.3211 F          1  LIG1  -0.1300
     27 C17       -19.2955    19.8201   -21.8343 C.ar       1  LIG1  -0.1900
     28 H3        -23.5144    17.1161   -21.2456 H          1  LIG1   0.0600
     29 H4        -22.6819    18.6661   -20.9768 H          1  LIG1   0.0600
     30 H5        -22.0484    17.5117   -22.1744 H          1  LIG1   0.0700
     31 H6        -22.1764    17.0573   -19.1588 H          1  LIG1   0.0900
     32 H7        -21.5428    15.9031   -20.3565 H          1  LIG1   0.0900
     33 H8        -20.0737    16.7786   -18.1187 H          1  LIG1   0.1200
     34 H9        -19.0245    16.0780   -19.3744 H          1  LIG1   0.1100
     35 H10       -18.3101    18.7885   -19.0281 H          1  LIG1   0.4200
     36 H11       -16.3488    19.3878   -17.7097 H          1  LIG1   0.1900
     37 H12       -13.4986    17.6239   -14.3602 H          1  LIG1   0.2000
     38 H13       -11.9017    19.6981   -14.1609 H          1  LIG1   0.1700
     39 H14       -12.7482    21.5563   -15.8763 H          1  LIG1   0.2100
     40 H15       -16.1753    14.4658   -14.8461 H          1  LIG1   0.4500
     41 H16       -17.5213    14.1484   -15.8002 H          1  LIG1   0.4300
     42 H17       -17.1174    17.2347   -21.8508 H          1  LIG1   0.1400
     43 H18       -15.5856    19.0447   -22.5100 H          1  LIG1   0.1400
     44 H19       -16.4221    21.3482   -22.7325 H          1  LIG1   0.1400
     45 H20       -20.3358    20.0385   -21.6434 H          1  LIG1   0.1400
@<TRIPOS>BOND
     1    1    2 1
     2    1   28 1
     3    1   29 1
     4    1   30 1
     5    2    3 1
     6    2   31 1
     7    2   32 1
     8    3    4 1
     9    3    5 1
    10    3   20 1
    11    5    6 1
    12    5   33 1
    13    5   34 1
    14    6    7 1
    15    6   35 1
    16    7   18 ar
    17    7    8 ar
    18    8    9 ar
    19    8   36 1
    20    9   10 1
    21    9   15 ar
    22   10   14 1
    23   10   11 1
    24   11   12 2
    25   11   37 1
    26   12   13 1
    27   12   38 1
    28   13   14 2
    29   13   39 1
    30   15   16 ar
    31   16   17 1
    32   16   18 ar
    33   17   40 1
    34   17   41 1
    35   18   19 1
    36   20   21 1
    37   21   27 ar
    38   21   22 ar
    39   22   23 ar
    40   22   42 1
    41   23   24 ar
    42   23   43 1
    43   24   25 ar
    44   24   44 1
    45   25   26 1
    46   25   27 ar
    47   27   45 1
##########                 Name:     ZINC000348549062
##########          Protonation:                 none
##########               SMILES:   C[N@@H+](CC1=CN(C2=CC=C(Cl)C=C2)N=C1)[C@@H]1CCC[C@@H]1O
##########            Long Name:   NO_LONG_NAME
##########          FlexRecCode: 1
##########               Number:                11128
##########   Ligand Source File: /nfs/db/export/3D/DF/ADMO/DFADMO.xpn.db2.gz
##########                 Rank:                    1
##########               Setnum:                   29
##########             Matchnum:                    1
##########                Cloud:                    1
##########        Electrostatic:           -50.172043
##########                 Gist:             0.000000
##########        Van der Waals:           -26.306536
##########  Ligand Polar Desolv:            14.307112
########## Ligand Apolar Desolv:            -4.787688
##########      Internal Energy:             0.000000
##########      Receptor Energy:             0.000000
########## Receptor Desolvation:             0.000000
########## Receptor Hydrophobic:             0.000000
##########         Total Energy:           -66.959152
##########        Ligand Charge:             1.000000
##########            Arbitrary:    +999.9990
##########        Ligand Energy:             0.000000

@<TRIPOS>MOLECULE
 ZINC000348549062      none
   42    44     0     0     0



@<TRIPOS>ATOM
      1 C1        -17.0543    15.3252   -19.5628 C.3        1  LIG1  -0.0500
      2 N1        -17.9939    16.0717   -18.7155 N.4        1  LIG1  -0.3700
      3 H1        -18.3340    15.4707   -17.9801 H          1  LIG1   0.4300
      4 C2        -17.3074    17.2283   -18.1247 C.3        1  LIG1   0.0800
      5 C3        -16.4939    16.7778   -16.9389 C.2        1  LIG1  -0.3000
      6 C4        -16.3932    15.5093   -16.4783 C.2        1  LIG1   0.1000
      7 N2        -15.5726    15.5256   -15.4038 N.pl3      1  LIG1  -0.3000
      8 C5        -15.2028    14.4158   -14.6307 C.ar       1  LIG1   0.1400
      9 C6        -14.3527    14.5770   -13.5449 C.ar       1  LIG1  -0.1200
     10 C7        -13.9903    13.4825   -12.7847 C.ar       1  LIG1  -0.0800
     11 C8        -14.4738    12.2259   -13.1043 C.ar       1  LIG1  -0.0300
     12 Cl1       -14.0169    10.8521   -12.1464 Cl         1  LIG1  -0.0400
     13 C9        -15.3213    12.0627   -14.1861 C.ar       1  LIG1  -0.0800
     14 C10       -15.6908    13.1550   -14.9461 C.ar       1  LIG1  -0.0900
     15 N3        -15.1572    16.8478   -15.1996 N.2        1  LIG1  -0.2600
     16 C11       -15.7048    17.5961   -16.1232 C.2        1  LIG1   0.0800
     17 C12       -19.1245    16.5368   -19.5301 C.3        1  LIG1   0.0300
     18 H2        -19.4171    15.7624   -20.2390 H          1  LIG1   0.1500
     19 C13       -18.7370    17.8253   -20.2850 C.3        1  LIG1  -0.1400
     20 C14       -20.0293    18.6788   -20.2676 C.3        1  LIG1  -0.1200
     21 C15       -20.6071    18.3955   -18.8588 C.3        1  LIG1  -0.1600
     22 C16       -20.3139    16.8983   -18.6234 C.3        1  LIG1   0.0900
     23 H3        -21.1847    16.3004   -18.8921 H          1  LIG1   0.1000
     24 O1        -19.9717    16.6759   -17.2538 O.3        1  LIG1  -0.5800
     25 H4        -16.6869    15.9745   -20.3574 H          1  LIG1   0.1200
     26 H5        -16.2153    14.9801   -18.9584 H          1  LIG1   0.1400
     27 H6        -17.5634    14.4668   -20.0012 H          1  LIG1   0.1100
     28 H7        -16.6486    17.6782   -18.8675 H          1  LIG1   0.1400
     29 H8        -18.0453    17.9624   -17.8014 H          1  LIG1   0.1300
     30 H9        -16.8806    14.6398   -16.8943 H          1  LIG1   0.1900
     31 H10       -13.9748    15.5575   -13.2953 H          1  LIG1   0.1400
     32 H11       -13.3287    13.6073   -11.9402 H          1  LIG1   0.1500
     33 H12       -15.6974    11.0810   -14.4335 H          1  LIG1   0.1500
     34 H13       -16.3522    13.0271   -15.7903 H          1  LIG1   0.1500
     35 H14       -15.5757    18.6627   -16.2326 H          1  LIG1   0.2000
     36 H15       -17.9304    18.3434   -19.7663 H          1  LIG1   0.0900
     37 H16       -18.4463    17.5940   -21.3098 H          1  LIG1   0.1000
     38 H17       -19.7949    19.7370   -20.3833 H          1  LIG1   0.0900
     39 H18       -20.7210    18.3483   -21.0425 H          1  LIG1   0.0900
     40 H19       -20.1026    19.0058   -18.1097 H          1  LIG1   0.0900
     41 H20       -21.6812    18.5806   -18.8426 H          1  LIG1   0.0900
     42 H21       -19.7334    15.7607   -17.0516 H          1  LIG1   0.4100
@<TRIPOS>BOND
     1    1    2 1
     2    1   25 1
     3    1   26 1
     4    1   27 1
     5    2    3 1
     6    2    4 1
     7    2   17 1
     8    4    5 1
     9    4   28 1
    10    4   29 1
    11    5   16 1
    12    5    6 2
    13    6    7 1
    14    6   30 1
    15    7    8 1
    16    7   15 1
    17    8   14 ar
    18    8    9 ar
    19    9   10 ar
    20    9   31 1
    21   10   11 ar
    22   10   32 1
    23   11   12 1
    24   11   13 ar
    25   13   14 ar
    26   13   33 1
    27   14   34 1
    28   15   16 2
    29   16   35 1
    30   17   18 1
    31   17   22 1
    32   17   19 1
    33   19   20 1
    34   19   36 1
    35   19   37 1
    36   20   21 1
    37   20   38 1
    38   20   39 1
    39   21   22 1
    40   21   40 1
    41   21   41 1
    42   22   23 1
    43   22   24 1
    44   24   42 1
##########                 Name:     ZINC000648580356
##########          Protonation:                 none
##########               SMILES:   COC1=C(C[N@@H+]2CC[C@](O)(CN3C=CN=N3)C2)C=C2C=CC=CC2=C1
##########            Long Name:   NO_LONG_NAME
##########          FlexRecCode: 1
##########               Number:                13808
##########   Ligand Source File: /nfs/db/export/3D/EE/ADRO/EEADRO.xbey.db2.gz
##########                 Rank:                    1
##########               Setnum:                  162
##########             Matchnum:                    1
##########                Cloud:                    1
##########        Electrostatic:           -43.559608
##########                 Gist:             0.000000
##########        Van der Waals:           -32.496723
##########  Ligand Polar Desolv:            16.825712
########## Ligand Apolar Desolv:            -3.810503
##########      Internal Energy:             0.000000
##########      Receptor Energy:             0.000000
########## Receptor Desolvation:             0.000000
########## Receptor Hydrophobic:             0.000000
##########         Total Energy:           -63.041126
##########        Ligand Charge:             1.000000
##########            Arbitrary:    +999.9990
##########        Ligand Energy:             0.000000

@<TRIPOS>MOLECULE
 ZINC000648580356      none
   48    51     0     0     0



@<TRIPOS>ATOM
      1 C1        -14.0544    19.8720   -15.7539 C.3        1  LIG1   0.0200
      2 O1        -15.2372    19.1082   -15.9987 O.3        1  LIG1  -0.3300
      3 C2        -15.2005    17.7911   -15.6669 C.ar       1  LIG1   0.1300
      4 C3        -16.3283    16.9934   -15.8835 C.ar       1  LIG1  -0.1800
      5 C4        -17.5681    17.6068   -16.4816 C.3        1  LIG1   0.0600
      6 N1        -18.0965    16.7214   -17.5279 N.4        1  LIG1  -0.3900
      7 H1        -18.3306    15.8190   -17.1416 H          1  LIG1   0.4300
      8 C5        -17.1121    16.5749   -18.6307 C.3        1  LIG1   0.0000
      9 C6        -17.9537    16.1339   -19.8475 C.3        1  LIG1  -0.1800
     10 C7        -19.3821    16.6340   -19.5492 C.3        1  LIG1   0.1100
     11 O2        -20.2893    15.5322   -19.4794 O.3        1  LIG1  -0.5400
     12 C8        -19.8333    17.6254   -20.6236 C.3        1  LIG1   0.1000
     13 N2        -18.7138    18.4997   -20.9824 N.pl3      1  LIG1  -0.3100
     14 C9        -18.3494    18.8460   -22.2387 C.2        1  LIG1  -0.0400
     15 C10       -17.2752    19.6591   -22.1090 C.2        1  LIG1  -0.0400
     16 N3        -17.0382    19.7691   -20.7970 N.2        1  LIG1  -0.2500
     17 N4        -17.9114    19.0747   -20.1566 N.2        1  LIG1  -0.1000
     18 C11       -19.2853    17.3335   -18.1750 C.3        1  LIG1   0.0100
     19 C12       -16.3219    15.6717   -15.5625 C.ar       1  LIG1  -0.0200
     20 C13       -15.1678    15.0955   -15.0045 C.ar       1  LIG1  -0.0900
     21 C14       -15.1266    13.7332   -14.6615 C.ar       1  LIG1  -0.0900
     22 C15       -13.9922    13.2081   -14.1234 C.ar       1  LIG1  -0.1200
     23 C16       -12.8669    14.0012   -13.9060 C.ar       1  LIG1  -0.0800
     24 C17       -12.8697    15.3240   -14.2253 C.ar       1  LIG1  -0.1200
     25 C18       -14.0233    15.9024   -14.7834 C.ar       1  LIG1   0.0000
     26 C19       -14.0606    17.2623   -15.1312 C.ar       1  LIG1  -0.1900
     27 H2        -14.2181    20.9044   -16.0631 H          1  LIG1   0.0700
     28 H3        -13.8178    19.8446   -14.6902 H          1  LIG1   0.0600
     29 H4        -13.2252    19.4498   -16.3216 H          1  LIG1   0.1100
     30 H5        -18.3198    17.7387   -15.7034 H          1  LIG1   0.1400
     31 H6        -17.3210    18.5754   -16.9160 H          1  LIG1   0.1400
     32 H7        -16.6224    17.5277   -18.8322 H          1  LIG1   0.1500
     33 H8        -16.3739    15.8121   -18.3826 H          1  LIG1   0.1300
     34 H9        -17.5732    16.5962   -20.7584 H          1  LIG1   0.1400
     35 H10       -17.9445    15.0480   -19.9407 H          1  LIG1   0.1100
     36 H11       -20.0721    14.8867   -18.7928 H          1  LIG1   0.4000
     37 H12       -20.1647    17.0787   -21.5064 H          1  LIG1   0.1300
     38 H13       -20.6563    18.2281   -20.2393 H          1  LIG1   0.1200
     39 H14       -18.8206    18.5356   -23.1596 H          1  LIG1   0.2000
     40 H15       -16.7187    20.1270   -22.9076 H          1  LIG1   0.2000
     41 H16       -20.1830    17.1423   -17.5870 H          1  LIG1   0.1500
     42 H17       -19.1355    18.4055   -18.3040 H          1  LIG1   0.1500
     43 H18       -17.2003    15.0676   -15.7353 H          1  LIG1   0.1500
     44 H19       -15.9909    13.1064   -14.8240 H          1  LIG1   0.1300
     45 H20       -13.9636    12.1609   -13.8605 H          1  LIG1   0.1300
     46 H21       -11.9795    13.5594   -13.4771 H          1  LIG1   0.1300
     47 H22       -11.9904    15.9263   -14.0513 H          1  LIG1   0.1300
     48 H23       -13.1944    17.8874   -14.9725 H          1  LIG1   0.1400
@<TRIPOS>BOND
     1    1    2 1
     2    1   27 1
     3    1   28 1
     4    1   29 1
     5    2    3 1
     6    3   26 ar
     7    3    4 ar
     8    4    5 1
     9    4   19 ar
    10    5    6 1
    11    5   30 1
    12    5   31 1
    13    6    7 1
    14    6   18 1
    15    6    8 1
    16    8    9 1
    17    8   32 1
    18    8   33 1
    19    9   10 1
    20    9   34 1
    21    9   35 1
    22   10   11 1
    23   10   12 1
    24   10   18 1
    25   11   36 1
    26   12   13 1
    27   12   37 1
    28   12   38 1
    29   13   17 1
    30   13   14 1
    31   14   15 2
    32   14   39 1
    33   15   16 1
    34   15   40 1
    35   16   17 2
    36   18   41 1
    37   18   42 1
    38   19   20 ar
    39   19   43 1
    40   20   25 ar
    41   20   21 ar
    42   21   22 ar
    43   21   44 1
    44   22   23 ar
    45   22   45 1
    46   23   24 ar
    47   23   46 1
    48   24   25 ar
    49   24   47 1
    50   25   26 ar
    51   26   48 1
##########                 Name:     ZINC000668805771
##########          Protonation:                 none
##########               SMILES:   C[N@@H+](CC1=CN(C2=CC=C(Cl)C=C2)N=C1)C1(CO)CCOCC1
##########            Long Name:   NO_LONG_NAME
##########          FlexRecCode: 1
##########               Number:                12312
##########   Ligand Source File: /nfs/db/export/3D/EE/ADMO/EEADMO.xbjq.db2.gz
##########                 Rank:                    1
##########               Setnum:                   26
##########             Matchnum:                    1
##########                Cloud:                    1
##########        Electrostatic:           -42.346966
##########                 Gist:             0.000000
##########        Van der Waals:           -32.085682
##########  Ligand Polar Desolv:            13.099245
########## Ligand Apolar Desolv:            -3.495050
##########      Internal Energy:             0.000000
##########      Receptor Energy:             0.000000
########## Receptor Desolvation:             0.000000
########## Receptor Hydrophobic:             0.000000
##########         Total Energy:           -64.828453
##########        Ligand Charge:             1.000000
##########            Arbitrary:    +999.9990
##########        Ligand Energy:             0.000000

@<TRIPOS>MOLECULE
 ZINC000668805771      none
   46    48     0     0     0



@<TRIPOS>ATOM
      1 C1        -17.0948    15.6710   -19.1793 C.3        1  LIG1  -0.0600
      2 N1        -17.9072    16.4535   -18.2381 N.4        1  LIG1  -0.3700
      3 H1        -18.3060    15.8377   -17.5454 H          1  LIG1   0.4300
      4 C2        -17.0604    17.4539   -17.5747 C.3        1  LIG1   0.0800
      5 C3        -16.2855    16.7972   -16.4615 C.2        1  LIG1  -0.3000
      6 C4        -16.3416    15.4901   -16.1156 C.2        1  LIG1   0.1000
      7 N2        -15.5007    15.3037   -15.0734 N.pl3      1  LIG1  -0.3000
      8 C5        -15.2621    14.0904   -14.4123 C.ar       1  LIG1   0.1300
      9 C6        -14.3727    14.0420   -13.3474 C.ar       1  LIG1  -0.1200
     10 C7        -14.1398    12.8459   -12.6975 C.ar       1  LIG1  -0.0800
     11 C8        -14.7921    11.6962   -13.1070 C.ar       1  LIG1  -0.0300
     12 Cl1       -14.4977    10.1942   -12.2877 Cl         1  LIG1  -0.0400
     13 C9        -15.6791    11.7419   -14.1682 C.ar       1  LIG1  -0.0800
     14 C10       -15.9194    12.9367   -14.8178 C.ar       1  LIG1  -0.0900
     15 N3        -14.9100    16.5374   -14.7710 N.2        1  LIG1  -0.2600
     16 C11       -15.3761    17.4301   -15.6069 C.2        1  LIG1   0.0800
     17 C12       -18.9857    17.1321   -18.9690 C.3        1  LIG1   0.0600
     18 C13       -19.8303    17.9512   -17.9908 C.3        1  LIG1   0.0500
     19 O1        -20.0076    17.2126   -16.7805 O.3        1  LIG1  -0.5800
     20 C14       -18.3823    18.0592   -20.0286 C.3        1  LIG1  -0.1800
     21 C15       -19.5127    18.7015   -20.8369 C.3        1  LIG1   0.0600
     22 O2        -20.3147    17.6775   -21.4289 O.3        1  LIG1  -0.3700
     23 C16       -20.9428    16.8089   -20.4839 C.3        1  LIG1   0.0600
     24 C17       -19.8698    16.0904   -19.6615 C.3        1  LIG1  -0.1700
     25 H2        -16.6639    16.3363   -19.9276 H          1  LIG1   0.1300
     26 H3        -16.2946    15.1674   -18.6370 H          1  LIG1   0.1200
     27 H4        -17.7232    14.9288   -19.6716 H          1  LIG1   0.1200
     28 H5        -16.3658    17.8798   -18.2988 H          1  LIG1   0.1400
     29 H6        -17.6871    18.2453   -17.1634 H          1  LIG1   0.1300
     30 H7        -16.9492    14.7319   -16.5875 H          1  LIG1   0.1900
     31 H8        -13.8630    14.9389   -13.0277 H          1  LIG1   0.1400
     32 H9        -13.4476    12.8076   -11.8693 H          1  LIG1   0.1500
     33 H10       -16.1871    10.8433   -14.4859 H          1  LIG1   0.1500
     34 H11       -16.6118    12.9719   -15.6459 H          1  LIG1   0.1500
     35 H12       -15.1103    18.4767   -15.6285 H          1  LIG1   0.2000
     36 H13       -19.3236    18.8911   -17.7721 H          1  LIG1   0.0800
     37 H14       -20.8035    18.1581   -18.4361 H          1  LIG1   0.0900
     38 H15       -20.4533    16.3628   -16.8999 H          1  LIG1   0.4100
     39 H16       -17.7959    18.8375   -19.5404 H          1  LIG1   0.1000
     40 H17       -17.7408    17.4822   -20.6946 H          1  LIG1   0.1100
     41 H18       -20.1304    19.3111   -20.1772 H          1  LIG1   0.0600
     42 H19       -19.0882    19.3293   -21.6202 H          1  LIG1   0.1200
     43 H20       -21.5792    17.3935   -19.8196 H          1  LIG1   0.0600
     44 H21       -21.5484    16.0732   -21.0131 H          1  LIG1   0.1200
     45 H22       -19.2582    15.4737   -20.3202 H          1  LIG1   0.1000
     46 H23       -20.3471    15.4607   -18.9108 H          1  LIG1   0.1100
@<TRIPOS>BOND
     1    1    2 1
     2    1   25 1
     3    1   26 1
     4    1   27 1
     5    2    3 1
     6    2    4 1
     7    2   17 1
     8    4    5 1
     9    4   28 1
    10    4   29 1
    11    5   16 1
    12    5    6 2
    13    6    7 1
    14    6   30 1
    15    7    8 1
    16    7   15 1
    17    8   14 ar
    18    8    9 ar
    19    9   10 ar
    20    9   31 1
    21   10   11 ar
    22   10   32 1
    23   11   12 1
    24   11   13 ar
    25   13   14 ar
    26   13   33 1
    27   14   34 1
    28   15   16 2
    29   16   35 1
    30   17   24 1
    31   17   18 1
    32   17   20 1
    33   18   19 1
    34   18   36 1
    35   18   37 1
    36   19   38 1
    37   20   21 1
    38   20   39 1
    39   20   40 1
    40   21   22 1
    41   21   41 1
    42   21   42 1
    43   22   23 1
    44   23   24 1
    45   23   43 1
    46   23   44 1
    47   24   45 1
    48   24   46 1
##########                 Name:     ZINC000373104229
##########          Protonation:                 none
##########               SMILES:   CC1=CC=CC(CNC(=O)C[N@@H+]2CCCC23CCC3)=C1
##########            Long Name:   NO_LONG_NAME
##########          FlexRecCode: 1
##########               Number:                10583
##########   Ligand Source File: /nfs/db/export/3D/CF/ADRO/CFADRO.xcub.db2.gz
##########                 Rank:                    1
##########               Setnum:                   62
##########             Matchnum:                    1
##########                Cloud:                    1
##########        Electrostatic:           -41.637745
##########                 Gist:             0.000000
##########        Van der Waals:           -27.897022
##########  Ligand Polar Desolv:            11.284723
########## Ligand Apolar Desolv:            -5.089572
##########      Internal Energy:             0.000000
##########      Receptor Energy:             0.000000
########## Receptor Desolvation:             0.000000
########## Receptor Hydrophobic:             0.000000
##########         Total Energy:           -63.339615
##########        Ligand Charge:             1.000000
##########            Arbitrary:    +999.9990
##########        Ligand Energy:             0.000000

@<TRIPOS>MOLECULE
 ZINC000373104229      none
   45    47     0     0     0



@<TRIPOS>ATOM
      1 C1        -16.1436    11.3975   -16.6447 C.3        1  LIG1  -0.1200
      2 C2        -15.8466    12.5365   -15.7036 C.ar       1  LIG1  -0.0800
      3 C3        -15.3140    12.2799   -14.4545 C.ar       1  LIG1  -0.1000
      4 C4        -15.0414    13.3250   -13.5911 C.ar       1  LIG1  -0.1100
      5 C5        -15.3013    14.6262   -13.9775 C.ar       1  LIG1  -0.1100
      6 C6        -15.8333    14.8830   -15.2275 C.ar       1  LIG1  -0.1200
      7 C7        -16.1171    16.3019   -15.6487 C.3        1  LIG1   0.1600
      8 N1        -17.4383    16.3694   -16.2780 N.am       1  LIG1  -0.7000
      9 C8        -17.9070    17.5471   -16.7363 C.2        1  LIG1   0.5000
     10 O1        -17.2351    18.5508   -16.6276 O.2        1  LIG1  -0.5300
     11 C9        -19.2661    17.6166   -17.3837 C.3        1  LIG1  -0.0300
     12 N2        -19.2919    16.7411   -18.5631 N.4        1  LIG1  -0.3500
     13 H1        -19.1022    15.7897   -18.2858 H          1  LIG1   0.4300
     14 C10       -18.2738    17.1891   -19.5400 C.3        1  LIG1   0.0000
     15 C11       -18.9204    16.9445   -20.9269 C.3        1  LIG1  -0.1400
     16 C12       -20.4064    17.3005   -20.6498 C.3        1  LIG1  -0.1200
     17 C13       -20.6090    16.8162   -19.2068 C.3        1  LIG1   0.0100
     18 C14       -21.4775    15.5625   -19.0661 C.3        1  LIG1  -0.1300
     19 C15       -22.0709    16.2170   -17.8061 C.3        1  LIG1  -0.1600
     20 C16       -21.6819    17.5738   -18.4195 C.3        1  LIG1  -0.1400
     21 C17       -16.1017    13.8386   -16.0922 C.ar       1  LIG1  -0.1000
     22 H2        -15.8793    10.4537   -16.1676 H          1  LIG1   0.0700
     23 H3        -17.2058    11.3959   -16.8893 H          1  LIG1   0.0700
     24 H4        -15.5606    11.5189   -17.5576 H          1  LIG1   0.0700
     25 H5        -15.1108    11.2630   -14.1525 H          1  LIG1   0.1300
     26 H6        -14.6259    13.1242   -12.6147 H          1  LIG1   0.1300
     27 H7        -15.0891    15.4425   -13.3030 H          1  LIG1   0.1200
     28 H8        -16.0980    16.9513   -14.7734 H          1  LIG1   0.0900
     29 H9        -15.3586    16.6284   -16.3601 H          1  LIG1   0.0900
     30 H10       -17.9758    15.5665   -16.3652 H          1  LIG1   0.4100
     31 H11       -20.0246    17.2902   -16.6723 H          1  LIG1   0.1600
     32 H12       -19.4715    18.6428   -17.6885 H          1  LIG1   0.1600
     33 H13       -18.0576    18.2487   -19.4036 H          1  LIG1   0.1300
     34 H14       -17.3632    16.5989   -19.4366 H          1  LIG1   0.1400
     35 H15       -18.4938    17.6085   -21.6788 H          1  LIG1   0.1200
     36 H16       -18.8183    15.9016   -21.2266 H          1  LIG1   0.1000
     37 H17       -20.5654    18.3764   -20.7213 H          1  LIG1   0.1000
     38 H18       -21.0654    16.7654   -21.3336 H          1  LIG1   0.1100
     39 H19       -22.1980    15.4370   -19.8743 H          1  LIG1   0.1300
     40 H20       -20.9072    14.6566   -18.8609 H          1  LIG1   0.0900
     41 H21       -23.1472    16.0757   -17.7067 H          1  LIG1   0.1000
     42 H22       -21.5259    15.9787   -16.8927 H          1  LIG1   0.0900
     43 H23       -21.2757    18.2803   -17.6956 H          1  LIG1   0.0900
     44 H24       -22.4596    18.0088   -19.0473 H          1  LIG1   0.1300
     45 H25       -16.5173    14.0392   -17.0687 H          1  LIG1   0.1200
@<TRIPOS>BOND
     1    1    2 1
     2    1   22 1
     3    1   23 1
     4    1   24 1
     5    2   21 ar
     6    2    3 ar
     7    3    4 ar
     8    3   25 1
     9    4    5 ar
    10    4   26 1
    11    5    6 ar
    12    5   27 1
    13    6    7 1
    14    6   21 ar
    15    7    8 1
    16    7   28 1
    17    7   29 1
    18    8    9 am
    19    8   30 1
    20    9   10 2
    21    9   11 1
    22   11   12 1
    23   11   31 1
    24   11   32 1
    25   12   13 1
    26   12   17 1
    27   12   14 1
    28   14   15 1
    29   14   33 1
    30   14   34 1
    31   15   16 1
    32   15   35 1
    33   15   36 1
    34   16   17 1
    35   16   37 1
    36   16   38 1
    37   17   20 1
    38   17   18 1
    39   18   19 1
    40   18   39 1
    41   18   40 1
    42   19   20 1
    43   19   41 1
    44   19   42 1
    45   20   43 1
    46   20   44 1
    47   21   45 1
##########                 Name:     ZINC000423341155
##########          Protonation:                 none
##########               SMILES:   CC(C)[C@H](C(=O)NCCNc1ncc(Cl)cc1Cl)[C@@H](C)[NH3+]
##########            Long Name:   NO_LONG_NAME
##########          FlexRecCode: 1
##########               Number:                 8523
##########   Ligand Source File: /nfs/db/export/3D/EF/ADRO/EFADRO.xbsh.db2.gz
##########                 Rank:                    1
##########               Setnum:                   70
##########             Matchnum:                    1
##########                Cloud:                    1
##########        Electrostatic:           -40.164066
##########                 Gist:             0.000000
##########        Van der Waals:           -30.252121
##########  Ligand Polar Desolv:             9.452115
########## Ligand Apolar Desolv:            -2.979764
##########      Internal Energy:             0.000000
##########      Receptor Energy:             0.000000
########## Receptor Desolvation:             0.000000
########## Receptor Hydrophobic:             0.000000
##########         Total Energy:           -63.943832
##########        Ligand Charge:             1.000000
##########            Arbitrary:    +999.9990
##########        Ligand Energy:             0.000000

@<TRIPOS>MOLECULE
 ZINC000423341155      none
   44    44     0     0     0



@<TRIPOS>ATOM
      1 C1        -15.8567    18.0076   -21.1288 C.3        1  LIG1  -0.1700
      2 C2        -15.6588    18.0793   -19.6134 C.3        1  LIG1  -0.1000
      3 C3        -15.0406    19.4290   -19.2431 C.3        1  LIG1  -0.1900
      4 C4        -17.0116    17.9290   -18.9147 C.3        1  LIG1  -0.1300
      5 H1        -17.6760    18.7325   -19.2327 H          1  LIG1   0.1500
      6 C5        -16.8167    17.9995   -17.4220 C.2        1  LIG1   0.5200
      7 O1        -17.6991    18.4388   -16.7154 O.2        1  LIG1  -0.5700
      8 N1        -15.6619    17.5742   -16.8724 N.am       1  LIG1  -0.7000
      9 C6        -15.4726    17.6425   -15.4214 C.3        1  LIG1   0.1000
     10 C7        -14.5401    16.5146   -14.9750 C.3        1  LIG1   0.1200
     11 N2        -15.1321    15.2224   -15.3299 N.pl3      1  LIG1  -0.7200
     12 C8        -14.8681    14.0993   -14.5522 C.ar       1  LIG1   0.4200
     13 N3        -14.0857    14.2063   -13.4901 N.ar       1  LIG1  -0.5100
     14 C9        -13.8101    13.1663   -12.7253 C.ar       1  LIG1   0.1700
     15 C10       -14.3324    11.9197   -13.0094 C.ar       1  LIG1  -0.1300
     16 Cl1       -13.9610    10.5612   -11.9944 Cl         1  LIG1  -0.0400
     17 C11       -15.1588    11.7644   -14.1159 C.ar       1  LIG1  -0.0100
     18 C12       -15.4340    12.8743   -14.8952 C.ar       1  LIG1  -0.1400
     19 Cl2       -16.4603    12.7384   -16.2887 Cl         1  LIG1  -0.0400
     20 C13       -17.6299    16.5793   -19.2852 C.3        1  LIG1   0.0500
     21 H2        -17.7709    16.5284   -20.3648 H          1  LIG1   0.1500
     22 C14       -16.6975    15.4515   -18.8387 C.3        1  LIG1  -0.1900
     23 N4        -18.9289    16.4352   -18.6143 N.4        1  LIG1  -0.6500
     24 H3        -18.8883    16.8712   -17.7054 H          1  LIG1   0.4200
     25 H4        -19.6449    16.8799   -19.1690 H          1  LIG1   0.4400
     26 H5        -19.1456    15.4556   -18.5081 H          1  LIG1   0.4300
     27 H6        -16.2971    17.0461   -21.3926 H          1  LIG1   0.0800
     28 H7        -16.5214    18.8110   -21.4468 H          1  LIG1   0.0700
     29 H8        -14.8931    18.1149   -21.6267 H          1  LIG1   0.0700
     30 H9        -14.9944    17.2758   -19.2952 H          1  LIG1   0.1100
     31 H10       -14.8997    19.4800   -18.1634 H          1  LIG1   0.0700
     32 H11       -14.0770    19.5361   -19.7408 H          1  LIG1   0.0600
     33 H12       -15.7051    20.2323   -19.5611 H          1  LIG1   0.1000
     34 H13       -14.9564    17.2227   -17.4376 H          1  LIG1   0.4200
     35 H14       -15.0321    18.6039   -15.1573 H          1  LIG1   0.0900
     36 H15       -16.4364    17.5355   -14.9236 H          1  LIG1   0.0800
     37 H16       -13.5762    16.6216   -15.4727 H          1  LIG1   0.0800
     38 H17       -14.3992    16.5655   -13.8953 H          1  LIG1   0.0800
     39 H18       -15.7081    15.1498   -16.1069 H          1  LIG1   0.4100
     40 H19       -13.1675    13.2918   -11.8664 H          1  LIG1   0.1800
     41 H20       -15.5799    10.8001   -14.3596 H          1  LIG1   0.1600
     42 H21       -17.1378    14.4900   -19.1025 H          1  LIG1   0.0900
     43 H22       -15.7336    15.5585   -19.3364 H          1  LIG1   0.0900
     44 H23       -16.5565    15.5025   -17.7591 H          1  LIG1   0.1100
@<TRIPOS>BOND
     1    1    2 1
     2    1   27 1
     3    1   28 1
     4    1   29 1
     5    2    3 1
     6    2    4 1
     7    2   30 1
     8    3   31 1
     9    3   32 1
    10    3   33 1
    11    4    5 1
    12    4    6 1
    13    4   20 1
    14    6    7 2
    15    6    8 am
    16    8    9 1
    17    8   34 1
    18    9   10 1
    19    9   35 1
    20    9   36 1
    21   10   11 1
    22   10   37 1
    23   10   38 1
    24   11   12 1
    25   11   39 1
    26   12   18 ar
    27   12   13 ar
    28   13   14 ar
    29   14   15 ar
    30   14   40 1
    31   15   16 1
    32   15   17 ar
    33   17   18 ar
    34   17   41 1
    35   18   19 1
    36   20   21 1
    37   20   22 1
    38   20   23 1
    39   22   42 1
    40   22   43 1
    41   22   44 1
    42   23   24 1
    43   23   25 1
    44   23   26 1
##########                 Name:     ZINC000273504348
##########          Protonation:                 none
##########               SMILES:   CCC1=CC=CC(NC(=O)C[NH2+][C@@H](CC2=CC=CC=C2)C(N)=O)=C1
##########            Long Name:   NO_LONG_NAME
##########          FlexRecCode: 1
##########               Number:                 6011
##########   Ligand Source File: /nfs/db/export/3D/ED/ADMO/EDADMO.xaex.db2.gz
##########                 Rank:                    1
##########               Setnum:                   33
##########             Matchnum:                    1
##########                Cloud:                    1
##########        Electrostatic:           -39.350403
##########                 Gist:             0.000000
##########        Van der Waals:           -32.499905
##########  Ligand Polar Desolv:            11.996895
########## Ligand Apolar Desolv:            -3.595607
##########      Internal Energy:             0.000000
##########      Receptor Energy:             0.000000
########## Receptor Desolvation:             0.000000
########## Receptor Hydrophobic:             0.000000
##########         Total Energy:           -63.449024
##########        Ligand Charge:             1.000000
##########            Arbitrary:    +999.9990
##########        Ligand Energy:             0.000000

@<TRIPOS>MOLECULE
 ZINC000273504348      none
   48    49     0     0     0



@<TRIPOS>ATOM
      1 C1        -12.1783    14.6681   -12.8119 C.3        1  LIG1  -0.1500
      2 C2        -13.6072    14.8096   -12.2834 C.3        1  LIG1  -0.0900
      3 C3        -14.5386    13.9743   -13.1235 C.ar       1  LIG1  -0.0600
      4 C4        -14.7877    12.6589   -12.7783 C.ar       1  LIG1  -0.1200
      5 C5        -15.6414    11.8889   -13.5471 C.ar       1  LIG1  -0.1000
      6 C6        -16.2482    12.4323   -14.6623 C.ar       1  LIG1  -0.1200
      7 C7        -16.0003    13.7534   -15.0115 C.ar       1  LIG1   0.1200
      8 N1        -16.6139    14.3071   -16.1406 N.am       1  LIG1  -0.6400
      9 C8        -15.9938    15.2818   -16.8348 C.2        1  LIG1   0.5000
     10 O1        -14.9039    15.6791   -16.4806 O.2        1  LIG1  -0.5100
     11 C9        -16.6545    15.8782   -18.0508 C.3        1  LIG1  -0.0400
     12 N2        -15.7828    16.9120   -18.6243 N.4        1  LIG1  -0.4800
     13 H1        -15.6234    17.6356   -17.9393 H          1  LIG1   0.4400
     14 H2        -14.9010    16.4994   -18.8892 H          1  LIG1   0.4400
     15 C10       -16.4269    17.4934   -19.8098 C.3        1  LIG1   0.0100
     16 H3        -16.9142    16.7041   -20.3823 H          1  LIG1   0.1700
     17 C11       -17.4701    18.5228   -19.3701 C.3        1  LIG1  -0.0900
     18 C12       -18.4502    18.7549   -20.4910 C.ar       1  LIG1  -0.1400
     19 C13       -18.2052    19.7391   -21.4305 C.ar       1  LIG1  -0.1000
     20 C14       -19.1042    19.9521   -22.4587 C.ar       1  LIG1  -0.1100
     21 C15       -20.2480    19.1808   -22.5476 C.ar       1  LIG1  -0.1000
     22 C16       -20.4926    18.1963   -21.6088 C.ar       1  LIG1  -0.1000
     23 C17       -19.5914    17.9803   -20.5829 C.ar       1  LIG1  -0.1400
     24 C18       -15.3868    18.1670   -20.6672 C.2        1  LIG1   0.5200
     25 N3        -14.2888    18.7031   -20.0985 N.am       1  LIG1  -0.8200
     26 O2        -15.5378    18.2268   -21.8690 O.2        1  LIG1  -0.5200
     27 C19       -15.1468    14.5255   -14.2347 C.ar       1  LIG1  -0.1300
     28 H4        -11.5046    15.2723   -12.2041 H          1  LIG1   0.0500
     29 H5        -11.8741    13.6225   -12.7612 H          1  LIG1   0.0600
     30 H6        -12.1381    15.0084   -13.8465 H          1  LIG1   0.0600
     31 H7        -13.6472    14.4692   -11.2487 H          1  LIG1   0.0800
     32 H8        -13.9113    15.8552   -12.3340 H          1  LIG1   0.0800
     33 H9        -14.3144    12.2318   -11.9066 H          1  LIG1   0.1300
     34 H10       -15.8335    10.8615   -13.2751 H          1  LIG1   0.1300
     35 H11       -16.9145    11.8303   -15.2624 H          1  LIG1   0.1300
     36 H12       -17.4856    13.9895   -16.4237 H          1  LIG1   0.4200
     37 H13       -16.8267    15.0966   -18.7909 H          1  LIG1   0.1800
     38 H14       -17.6073    16.3239   -17.7648 H          1  LIG1   0.1600
     39 H15       -18.0014    18.1502   -18.4942 H          1  LIG1   0.1100
     40 H16       -16.9730    19.4605   -19.1219 H          1  LIG1   0.1300
     41 H17       -17.3116    20.3415   -21.3610 H          1  LIG1   0.1300
     42 H18       -18.9132    20.7213   -23.1923 H          1  LIG1   0.1300
     43 H19       -20.9507    19.3477   -23.3506 H          1  LIG1   0.1300
     44 H20       -21.3863    17.5939   -21.6781 H          1  LIG1   0.1300
     45 H21       -19.7823    17.2110   -19.8494 H          1  LIG1   0.1300
     46 H22       -14.1681    18.6552   -19.1371 H          1  LIG1   0.4100
     47 H23       -13.6191    19.1366   -20.6503 H          1  LIG1   0.4300
     48 H24       -14.9520    15.5531   -14.5036 H          1  LIG1   0.1300
@<TRIPOS>BOND
     1    1    2 1
     2    1   28 1
     3    1   29 1
     4    1   30 1
     5    2    3 1
     6    2   31 1
     7    2   32 1
     8    3   27 ar
     9    3    4 ar
    10    4    5 ar
    11    4   33 1
    12    5    6 ar
    13    5   34 1
    14    6    7 ar
    15    6   35 1
    16    7    8 1
    17    7   27 ar
    18    8    9 am
    19    8   36 1
    20    9   10 2
    21    9   11 1
    22   11   12 1
    23   11   37 1
    24   11   38 1
    25   12   13 1
    26   12   14 1
    27   12   15 1
    28   15   16 1
    29   15   17 1
    30   15   24 1
    31   17   18 1
    32   17   39 1
    33   17   40 1
    34   18   23 ar
    35   18   19 ar
    36   19   20 ar
    37   19   41 1
    38   20   21 ar
    39   20   42 1
    40   21   22 ar
    41   21   43 1
    42   22   23 ar
    43   22   44 1
    44   23   45 1
    45   24   25 am
    46   24   26 2
    47   25   46 1
    48   25   47 1
    49   27   48 1
##########                 Name:     ZINC000582899898
##########          Protonation:                 none
##########               SMILES:   CC1=NNC=C1C[NH2+]C[C@@H](O)CN1C(=O)ON=C1C1=CC=CC=C1
##########            Long Name:   NO_LONG_NAME
##########          FlexRecCode: 1
##########               Number:                 9005
##########   Ligand Source File: /nfs/db/export/3D/EC/ADRO/ECADRO.xasm.db2.gz
##########                 Rank:                    1
##########               Setnum:                  561
##########             Matchnum:                    1
##########                Cloud:                    1
##########        Electrostatic:           -49.002438
##########                 Gist:             0.000000
##########        Van der Waals:           -35.262512
##########  Ligand Polar Desolv:            23.982788
########## Ligand Apolar Desolv:            -2.538844
##########      Internal Energy:             0.000000
##########      Receptor Energy:             0.000000
########## Receptor Desolvation:             0.000000
########## Receptor Hydrophobic:             0.000000
##########         Total Energy:           -62.821007
##########        Ligand Charge:             1.000000
##########            Arbitrary:    +999.9990
##########        Ligand Energy:             0.000000

@<TRIPOS>MOLECULE
 ZINC000582899898      none
   44    46     0     0     0



@<TRIPOS>ATOM
      1 C1        -22.4813    18.3716   -21.4129 C.3        1  LIG1  -0.0900
      2 C2        -22.4878    17.2294   -20.4299 C.2        1  LIG1   0.1000
      3 N1        -23.5329    16.5239   -20.0804 N.2        1  LIG1  -0.2700
      4 N2        -23.1201    15.5618   -19.1496 N.pl3      1  LIG1  -0.4500
      5 C3        -21.7937    15.7154   -18.9540 C.2        1  LIG1   0.1200
      6 C4        -21.3766    16.7363   -19.7381 C.2        1  LIG1  -0.3300
      7 C5        -19.9658    17.2560   -19.8410 C.3        1  LIG1   0.0900
      8 N3        -19.0902    16.4736   -18.9584 N.4        1  LIG1  -0.5100
      9 H1        -19.4111    16.5580   -18.0055 H          1  LIG1   0.4300
     10 H2        -19.1126    15.5038   -19.2359 H          1  LIG1   0.4300
     11 C6        -17.7149    16.9800   -19.0587 C.3        1  LIG1  -0.0400
     12 C7        -16.8030    16.1651   -18.1394 C.3        1  LIG1   0.0600
     13 H3        -17.1496    16.2564   -17.1101 H          1  LIG1   0.1300
     14 O1        -16.8345    14.7917   -18.5327 O.3        1  LIG1  -0.5400
     15 C8        -15.3706    16.6928   -18.2438 C.3        1  LIG1   0.1000
     16 N4        -15.2322    17.8962   -17.4198 N.am       1  LIG1  -0.5500
     17 C9        -15.4431    19.1830   -17.7870 C.2        1  LIG1   0.5600
     18 O2        -15.7912    19.5819   -18.8818 O.2        1  LIG1  -0.4700
     19 O3        -15.1918    19.9299   -16.7002 O.3        1  LIG1   0.0100
     20 N5        -14.8659    19.2346   -15.7649 N.2        1  LIG1  -0.3100
     21 C10       -14.8612    17.9755   -16.0851 C.2        1  LIG1   0.2800
     22 C11       -14.5155    16.8416   -15.1974 C.ar       1  LIG1  -0.0300
     23 C12       -13.6111    17.0218   -14.1515 C.ar       1  LIG1  -0.1100
     24 C13       -13.2929    15.9615   -13.3277 C.ar       1  LIG1  -0.1200
     25 C14       -13.8688    14.7214   -13.5383 C.ar       1  LIG1  -0.0900
     26 C15       -14.7663    14.5363   -14.5746 C.ar       1  LIG1  -0.1100
     27 C16       -15.0975    15.5907   -15.4008 C.ar       1  LIG1  -0.0700
     28 H4        -23.4908    18.5302   -21.7922 H          1  LIG1   0.0900
     29 H5        -22.1336    19.2770   -20.9155 H          1  LIG1   0.0900
     30 H6        -21.8148    18.1337   -22.2420 H          1  LIG1   0.0700
     31 H7        -23.6875    14.9019   -18.7213 H          1  LIG1   0.4500
     32 H8        -21.1752    15.1260   -18.2934 H          1  LIG1   0.1900
     33 H9        -19.6192    17.1648   -20.8705 H          1  LIG1   0.1400
     34 H10       -19.9417    18.3036   -19.5411 H          1  LIG1   0.1400
     35 H11       -17.3683    16.8887   -20.0881 H          1  LIG1   0.1400
     36 H12       -17.6908    18.0277   -18.7588 H          1  LIG1   0.1500
     37 H13       -17.7133    14.3907   -18.4910 H          1  LIG1   0.3900
     38 H14       -14.6759    15.9298   -17.8924 H          1  LIG1   0.1200
     39 H15       -15.1478    16.9360   -19.2827 H          1  LIG1   0.1300
     40 H16       -13.1604    17.9893   -13.9865 H          1  LIG1   0.1300
     41 H17       -12.5926    16.0998   -12.5173 H          1  LIG1   0.1400
     42 H18       -13.6164    13.8944   -12.8912 H          1  LIG1   0.1300
     43 H19       -15.2122    13.5657   -14.7345 H          1  LIG1   0.1400
     44 H20       -15.7986    15.4451   -16.2093 H          1  LIG1   0.1400
@<TRIPOS>BOND
     1    1    2 1
     2    1   28 1
     3    1   29 1
     4    1   30 1
     5    2    6 1
     6    2    3 2
     7    3    4 1
     8    4    5 1
     9    4   31 1
    10    5    6 2
    11    5   32 1
    12    6    7 1
    13    7    8 1
    14    7   33 1
    15    7   34 1
    16    8    9 1
    17    8   10 1
    18    8   11 1
    19   11   12 1
    20   11   35 1
    21   11   36 1
    22   12   13 1
    23   12   14 1
    24   12   15 1
    25   14   37 1
    26   15   16 1
    27   15   38 1
    28   15   39 1
    29   16   21 1
    30   16   17 am
    31   17   18 2
    32   17   19 1
    33   19   20 1
    34   20   21 2
    35   21   22 1
    36   22   27 ar
    37   22   23 ar
    38   23   24 ar
    39   23   40 1
    40   24   25 ar
    41   24   41 1
    42   25   26 ar
    43   25   42 1
    44   26   27 ar
    45   26   43 1
    46   27   44 1
##########                 Name:     ZINC000521969663
##########          Protonation:                 none
##########               SMILES:   CC(C)[C@H](C(=O)NCCCOC1=CC=C(Cl)C=C1Cl)[NH+](C)C
##########            Long Name:   NO_LONG_NAME
##########          FlexRecCode: 1
##########               Number:                 5571
##########   Ligand Source File: /nfs/db/export/3D/EG/ADRO/EGADRO.xatr.db2.gz
##########                 Rank:                    1
##########               Setnum:                  158
##########             Matchnum:                    1
##########                Cloud:                    1
##########        Electrostatic:           -40.883469
##########                 Gist:             0.000000
##########        Van der Waals:           -32.020882
##########  Ligand Polar Desolv:            15.771461
########## Ligand Apolar Desolv:            -5.384074
##########      Internal Energy:             0.000000
##########      Receptor Energy:             0.000000
########## Receptor Desolvation:             0.000000
########## Receptor Hydrophobic:             0.000000
##########         Total Energy:           -62.516964
##########        Ligand Charge:             1.000000
##########            Arbitrary:    +999.9990
##########        Ligand Energy:             0.000000

@<TRIPOS>MOLECULE
 ZINC000521969663      none
   47    47     0     0     0



@<TRIPOS>ATOM
      1 C1        -18.1740    19.0481   -20.8787 C.3        1  LIG1  -0.1700
      2 C2        -19.0345    17.8557   -20.4562 C.3        1  LIG1  -0.1100
      3 C3        -18.3530    16.5561   -20.8893 C.3        1  LIG1  -0.1700
      4 C4        -19.2025    17.8613   -18.9355 C.3        1  LIG1   0.0000
      5 H1        -19.6880    18.7872   -18.6270 H          1  LIG1   0.1600
      6 C5        -17.8491    17.7612   -18.2803 C.2        1  LIG1   0.5100
      7 O1        -17.2293    18.7687   -18.0122 O.2        1  LIG1  -0.5200
      8 N1        -17.3275    16.5524   -17.9923 N.am       1  LIG1  -0.7000
      9 C6        -16.0119    16.4551   -17.3553 C.3        1  LIG1   0.1200
     10 C7        -16.1797    16.4608   -15.8345 C.3        1  LIG1  -0.1300
     11 C8        -14.8056    16.3593   -15.1693 C.3        1  LIG1   0.0600
     12 O2        -14.1692    15.1455   -15.5738 O.3        1  LIG1  -0.3000
     13 C9        -14.3929    14.0459   -14.8064 C.ar       1  LIG1   0.1400
     14 C10       -15.4614    13.2083   -15.0881 C.ar       1  LIG1  -0.1900
     15 C11       -15.6874    12.0910   -14.3071 C.ar       1  LIG1  -0.0600
     16 C12       -14.8487    11.8071   -13.2443 C.ar       1  LIG1  -0.0600
     17 Cl1       -15.1348    10.4024   -12.2653 Cl         1  LIG1  -0.0500
     18 C13       -13.7814    12.6413   -12.9607 C.ar       1  LIG1  -0.0600
     19 C14       -13.5484    13.7567   -13.7429 C.ar       1  LIG1  -0.0600
     20 Cl2       -12.2096    14.8031   -13.3873 Cl         1  LIG1  -0.0400
     21 N2        -20.0288    16.7164   -18.5300 N.4        1  LIG1  -0.3700
     22 H2        -19.5794    15.8593   -18.8155 H          1  LIG1   0.4300
     23 C15       -20.1900    16.7217   -17.0698 C.3        1  LIG1  -0.0500
     24 C16       -21.3480    16.8141   -19.1685 C.3        1  LIG1  -0.0500
     25 H3        -18.6594    19.9739   -20.5702 H          1  LIG1   0.0700
     26 H4        -17.1951    18.9758   -20.4045 H          1  LIG1   0.0900
     27 H5        -18.0542    19.0441   -21.9621 H          1  LIG1   0.0700
     28 H6        -20.0134    17.9282   -20.9302 H          1  LIG1   0.1100
     29 H7        -18.9661    15.7066   -20.5884 H          1  LIG1   0.0700
     30 H8        -18.2334    16.5521   -21.9727 H          1  LIG1   0.0500
     31 H9        -17.3741    16.4837   -20.4153 H          1  LIG1   0.0900
     32 H10       -17.8231    15.7467   -18.2067 H          1  LIG1   0.4100
     33 H11       -15.5262    15.5294   -17.6638 H          1  LIG1   0.0800
     34 H12       -15.3987    17.3048   -17.6562 H          1  LIG1   0.0800
     35 H13       -16.6655    17.3865   -15.5260 H          1  LIG1   0.0900
     36 H14       -16.7927    15.6112   -15.5336 H          1  LIG1   0.0900
     37 H15       -14.1927    17.2088   -15.4702 H          1  LIG1   0.0700
     38 H16       -14.9255    16.3631   -14.0858 H          1  LIG1   0.0700
     39 H17       -16.1171    13.4293   -15.9175 H          1  LIG1   0.1500
     40 H18       -16.5199    11.4388   -14.5263 H          1  LIG1   0.1500
     41 H19       -13.1276    12.4181   -12.1306 H          1  LIG1   0.1500
     42 H20       -20.8031    15.8722   -16.7688 H          1  LIG1   0.1200
     43 H21       -19.2111    16.6492   -16.5959 H          1  LIG1   0.1300
     44 H22       -20.6754    17.6476   -16.7613 H          1  LIG1   0.1300
     45 H23       -21.9611    15.9645   -18.8675 H          1  LIG1   0.1300
     46 H24       -21.8335    17.7400   -18.8600 H          1  LIG1   0.1300
     47 H25       -21.2286    16.8100   -20.2520 H          1  LIG1   0.1300
@<TRIPOS>BOND
     1    1    2 1
     2    1   25 1
     3    1   26 1
     4    1   27 1
     5    2    3 1
     6    2    4 1
     7    2   28 1
     8    3   29 1
     9    3   30 1
    10    3   31 1
    11    4    5 1
    12    4    6 1
    13    4   21 1
    14    6    7 2
    15    6    8 am
    16    8    9 1
    17    8   32 1
    18    9   10 1
    19    9   33 1
    20    9   34 1
    21   10   11 1
    22   10   35 1
    23   10   36 1
    24   11   12 1
    25   11   37 1
    26   11   38 1
    27   12   13 1
    28   13   19 ar
    29   13   14 ar
    30   14   15 ar
    31   14   39 1
    32   15   16 ar
    33   15   40 1
    34   16   17 1
    35   16   18 ar
    36   18   19 ar
    37   18   41 1
    38   19   20 1
    39   21   22 1
    40   21   23 1
    41   21   24 1
    42   23   42 1
    43   23   43 1
    44   23   44 1
    45   24   45 1
    46   24   46 1
    47   24   47 1
##########                 Name:     ZINC000267328218
##########          Protonation:                 none
##########               SMILES:   CC1=NC(CCNC(=[NH2+])NC2=CC=CC3=C2CCCC3)=CS1
##########            Long Name:   NO_LONG_NAME
##########          FlexRecCode: 1
##########               Number:                10249
##########   Ligand Source File: /nfs/db/export/3D/DG/EDRO/DGEDRO.xda.db2.gz
##########                 Rank:                    1
##########               Setnum:                  101
##########             Matchnum:                    1
##########                Cloud:                    1
##########        Electrostatic:           -37.449348
##########                 Gist:             0.000000
##########        Van der Waals:           -30.374220
##########  Ligand Polar Desolv:             9.898194
########## Ligand Apolar Desolv:            -5.867662
##########      Internal Energy:             0.000000
##########      Receptor Energy:             0.000000
########## Receptor Desolvation:             0.000000
########## Receptor Hydrophobic:             0.000000
##########         Total Energy:           -63.793037
##########        Ligand Charge:             1.000000
##########            Arbitrary:    +999.9990
##########        Ligand Energy:             0.000000

@<TRIPOS>MOLECULE
 ZINC000267328218      none
   45    47     0     0     0



@<TRIPOS>ATOM
      1 C1        -16.8142    20.1716   -23.5399 C.3        1  LIG1  -0.0800
      2 C2        -17.9666    19.4666   -22.8722 C.2        1  LIG1   0.0500
      3 N1        -17.8690    18.7215   -21.8232 N.2        1  LIG1  -0.4800
      4 C3        -18.9795    18.1787   -21.3662 C.2        1  LIG1   0.0600
      5 C4        -19.0115    17.2885   -20.1508 C.3        1  LIG1  -0.0500
      6 C5        -17.5969    17.1453   -19.5859 C.3        1  LIG1   0.1000
      7 N2        -17.6281    16.2797   -18.4044 N.pl3      1  LIG1  -0.6900
      8 C6        -16.4659    16.0041   -17.7231 C.cat      1  LIG1   0.7400
      9 N3        -15.3366    16.5128   -18.1285 N.pl3      1  LIG1  -0.7700
     10 H1        -15.3158    17.0859   -18.9108 H          1  LIG1   0.4400
     11 H2        -14.5167    16.3184   -17.6480 H          1  LIG1   0.4400
     12 N4        -16.4953    15.1908   -16.6130 N.pl3      1  LIG1  -0.6300
     13 C7        -15.5652    15.3767   -15.5850 C.ar       1  LIG1   0.1100
     14 C8        -15.0619    16.6430   -15.3322 C.ar       1  LIG1  -0.1700
     15 C9        -14.1425    16.8238   -14.3171 C.ar       1  LIG1  -0.0800
     16 C10       -13.7295    15.7439   -13.5642 C.ar       1  LIG1  -0.1100
     17 C11       -14.2298    14.4716   -13.8143 C.ar       1  LIG1  -0.0300
     18 C12       -15.1538    14.2870   -14.8163 C.ar       1  LIG1  -0.0700
     19 C13       -15.7503    12.9405   -15.1321 C.3        1  LIG1  -0.0900
     20 C14       -14.8983    11.8221   -14.5353 C.3        1  LIG1  -0.1200
     21 C15       -14.6578    12.1353   -13.0537 C.3        1  LIG1  -0.1200
     22 C16       -13.7268    13.3397   -12.9570 C.3        1  LIG1  -0.0900
     23 C17       -20.0749    18.4830   -22.0686 C.2        1  LIG1  -0.2600
     24 S1        -19.5941    19.5442   -23.3906 S.3        1  LIG1   0.1600
     25 H3        -15.8920    19.9491   -23.0031 H          1  LIG1   0.0800
     26 H4        -16.7264    19.8284   -24.5707 H          1  LIG1   0.0900
     27 H5        -16.9906    21.2471   -23.5288 H          1  LIG1   0.0900
     28 H6        -19.6617    17.7288   -19.3949 H          1  LIG1   0.1000
     29 H7        -19.3924    16.3060   -20.4299 H          1  LIG1   0.1000
     30 H8        -16.9466    16.7049   -20.3418 H          1  LIG1   0.0900
     31 H9        -17.2160    18.1277   -19.3066 H          1  LIG1   0.1000
     32 H10       -18.4686    15.9012   -18.1025 H          1  LIG1   0.4400
     33 H11       -17.1610    14.4887   -16.5435 H          1  LIG1   0.4400
     34 H12       -15.3865    17.4844   -15.9263 H          1  LIG1   0.1400
     35 H13       -13.7477    17.8082   -14.1135 H          1  LIG1   0.1400
     36 H14       -13.0095    15.8887   -12.7724 H          1  LIG1   0.1400
     37 H15       -16.7564    12.8866   -14.7164 H          1  LIG1   0.0800
     38 H16       -15.8017    12.8149   -16.2135 H          1  LIG1   0.0700
     39 H17       -15.4228    10.8712   -14.6290 H          1  LIG1   0.0800
     40 H18       -13.9438    11.7684   -15.0588 H          1  LIG1   0.0700
     41 H19       -15.6058    12.3697   -12.5696 H          1  LIG1   0.0700
     42 H20       -14.1989    11.2751   -12.5665 H          1  LIG1   0.0800
     43 H21       -12.7323    13.0536   -13.2992 H          1  LIG1   0.0900
     44 H22       -13.6687    13.6667   -11.9188 H          1  LIG1   0.0900
     45 H23       -21.0782    18.1418   -21.8606 H          1  LIG1   0.1800
@<TRIPOS>BOND
     1    1    2 1
     2    1   25 1
     3    1   26 1
     4    1   27 1
     5    2   24 1
     6    2    3 2
     7    3    4 1
     8    4    5 1
     9    4   23 2
    10    5    6 1
    11    5   28 1
    12    5   29 1
    13    6    7 1
    14    6   30 1
    15    6   31 1
    16    7    8 1
    17    7   32 1
    18    8    9 2
    19    8   12 1
    20    9   10 1
    21    9   11 1
    22   12   13 1
    23   12   33 1
    24   13   18 ar
    25   13   14 ar
    26   14   15 ar
    27   14   34 1
    28   15   16 ar
    29   15   35 1
    30   16   17 ar
    31   16   36 1
    32   17   22 1
    33   17   18 ar
    34   18   19 1
    35   19   20 1
    36   19   37 1
    37   19   38 1
    38   20   21 1
    39   20   39 1
    40   20   40 1
    41   21   22 1
    42   21   41 1
    43   21   42 1
    44   22   43 1
    45   22   44 1
    46   23   24 1
    47   23   45 1
##########                 Name:     ZINC000271457495
##########          Protonation:                 none
##########               SMILES:   OC[C@@H](C[C@@H](O)C1=CC=CC=C1)[NH2+]C1CCN(C2=CC=CC=N2)CC1
##########            Long Name:   NO_LONG_NAME
##########          FlexRecCode: 1
##########               Number:                 7460
##########   Ligand Source File: /nfs/db/export/3D/EE/ADRO/EEADRO.xbgy.db2.gz
##########                 Rank:                    1
##########               Setnum:                  194
##########             Matchnum:                    1
##########                Cloud:                    1
##########        Electrostatic:           -46.594910
##########                 Gist:             0.000000
##########        Van der Waals:           -29.894852
##########  Ligand Polar Desolv:            15.022560
########## Ligand Apolar Desolv:            -2.215443
##########      Internal Energy:             0.000000
##########      Receptor Energy:             0.000000
########## Receptor Desolvation:             0.000000
########## Receptor Hydrophobic:             0.000000
##########         Total Energy:           -63.682644
##########        Ligand Charge:             1.000000
##########            Arbitrary:    +999.9990
##########        Ligand Energy:             0.000000

@<TRIPOS>MOLECULE
 ZINC000271457495      none
   53    55     0     0     0



@<TRIPOS>ATOM
      1 O1        -19.3568    16.7023   -15.9051 O.3        1  LIG1  -0.5800
      2 C1        -18.1193    17.2345   -15.4283 C.3        1  LIG1   0.0500
      3 C2        -16.9680    16.3369   -15.8860 C.3        1  LIG1   0.0300
      4 H1        -16.0331    16.8957   -15.8447 H          1  LIG1   0.1600
      5 C3        -16.8747    15.1180   -14.9659 C.3        1  LIG1  -0.1700
      6 C4        -15.7233    14.2204   -15.4238 C.3        1  LIG1   0.1400
      7 H2        -16.0485    13.6156   -16.2702 H          1  LIG1   0.1000
      8 O2        -14.6140    15.0314   -15.8160 O.3        1  LIG1  -0.5500
      9 C5        -15.3093    13.3172   -14.2906 C.ar       1  LIG1  -0.1400
     10 C6        -14.3355    13.7282   -13.3996 C.ar       1  LIG1  -0.1100
     11 C7        -13.9559    12.8998   -12.3602 C.ar       1  LIG1  -0.1100
     12 C8        -14.5502    11.6605   -12.2115 C.ar       1  LIG1  -0.1100
     13 C9        -15.5245    11.2500   -13.1021 C.ar       1  LIG1  -0.1100
     14 C10       -15.9073    12.0802   -14.1389 C.ar       1  LIG1  -0.1100
     15 N1        -17.2121    15.8922   -17.2646 N.4        1  LIG1  -0.5000
     16 H3        -16.4528    15.3002   -17.5665 H          1  LIG1   0.4200
     17 H4        -18.0775    15.3748   -17.3029 H          1  LIG1   0.4300
     18 C11       -17.3017    17.0624   -18.1481 C.3        1  LIG1   0.0200
     19 C12       -15.8926    17.5521   -18.4933 C.3        1  LIG1  -0.1400
     20 C13       -15.9910    18.7329   -19.4619 C.3        1  LIG1   0.0700
     21 N2        -16.6942    18.3110   -20.6801 N.pl3      1  LIG1  -0.4800
     22 C14       -16.6867    19.3212   -21.6348 C.ar       1  LIG1   0.3000
     23 C15       -15.6473    19.3908   -22.5565 C.ar       1  LIG1  -0.1800
     24 C16       -15.6525    20.4012   -23.5015 C.ar       1  LIG1  -0.0500
     25 C17       -16.7010    21.3113   -23.4926 C.ar       1  LIG1  -0.1900
     26 C18       -17.7002    21.1828   -22.5483 C.ar       1  LIG1   0.1300
     27 N3        -17.6717    20.2058   -21.6620 N.ar       1  LIG1  -0.5200
     28 C19       -18.0659    17.8812   -20.3796 C.3        1  LIG1   0.0600
     29 C20       -18.0294    16.6750   -19.4383 C.3        1  LIG1  -0.1400
     30 H5        -19.4117    16.6367   -16.8683 H          1  LIG1   0.4100
     31 H6        -17.9779    18.2388   -15.8276 H          1  LIG1   0.0700
     32 H7        -18.1371    17.2756   -14.3392 H          1  LIG1   0.0900
     33 H8        -16.6935    15.4480   -13.9430 H          1  LIG1   0.1200
     34 H9        -17.8095    14.5592   -15.0073 H          1  LIG1   0.1100
     35 H10       -14.8085    15.6390   -16.5426 H          1  LIG1   0.3900
     36 H11       -13.8712    14.6963   -13.5157 H          1  LIG1   0.1200
     37 H12       -13.1945    13.2205   -11.6645 H          1  LIG1   0.1300
     38 H13       -14.2530    11.0130   -11.3999 H          1  LIG1   0.1300
     39 H14       -15.9886    10.2817   -12.9861 H          1  LIG1   0.1300
     40 H15       -16.6685    11.7595   -14.8346 H          1  LIG1   0.1200
     41 H16       -17.8515    17.8577   -17.6446 H          1  LIG1   0.1400
     42 H17       -15.3844    17.8696   -17.5829 H          1  LIG1   0.1000
     43 H18       -15.3308    16.7435   -18.9611 H          1  LIG1   0.1000
     44 H19       -16.5410    19.5460   -18.9882 H          1  LIG1   0.0600
     45 H20       -14.9890    19.0747   -19.7208 H          1  LIG1   0.1100
     46 H21       -14.8470    18.6661   -22.5347 H          1  LIG1   0.1400
     47 H22       -14.8589    20.4806   -24.2295 H          1  LIG1   0.1400
     48 H23       -16.7345    22.1120   -24.2166 H          1  LIG1   0.1400
     49 H24       -18.5176    21.8885   -22.5378 H          1  LIG1   0.1600
     50 H25       -18.6060    18.6985   -19.9016 H          1  LIG1   0.0600
     51 H26       -18.5708    17.6045   -21.3051 H          1  LIG1   0.1100
     52 H27       -17.5011    15.8526   -19.9212 H          1  LIG1   0.1000
     53 H28       -19.0478    16.3659   -19.2031 H          1  LIG1   0.1000
@<TRIPOS>BOND
     1    1    2 1
     2    1   30 1
     3    2    3 1
     4    2   31 1
     5    2   32 1
     6    3    4 1
     7    3    5 1
     8    3   15 1
     9    5    6 1
    10    5   33 1
    11    5   34 1
    12    6    7 1
    13    6    8 1
    14    6    9 1
    15    8   35 1
    16    9   14 ar
    17    9   10 ar
    18   10   11 ar
    19   10   36 1
    20   11   12 ar
    21   11   37 1
    22   12   13 ar
    23   12   38 1
    24   13   14 ar
    25   13   39 1
    26   14   40 1
    27   15   16 1
    28   15   17 1
    29   15   18 1
    30   18   29 1
    31   18   19 1
    32   18   41 1
    33   19   20 1
    34   19   42 1
    35   19   43 1
    36   20   21 1
    37   20   44 1
    38   20   45 1
    39   21   22 1
    40   21   28 1
    41   22   27 ar
    42   22   23 ar
    43   23   24 ar
    44   23   46 1
    45   24   25 ar
    46   24   47 1
    47   25   26 ar
    48   25   48 1
    49   26   27 ar
    50   26   49 1
    51   28   29 1
    52   28   50 1
    53   28   51 1
    54   29   52 1
    55   29   53 1
##########                 Name:     ZINC000367056015
##########          Protonation:                 none
##########               SMILES:   CC1=CC(C)=C(NC(=O)C[N@@H+]2CC[C@]3(C2)CCCOC3)C(Cl)=C1
##########            Long Name:   NO_LONG_NAME
##########          FlexRecCode: 1
##########               Number:                 8286
##########   Ligand Source File: /nfs/db/export/3D/EG/ADMO/EGADMO.xako.db2.gz
##########                 Rank:                    1
##########               Setnum:                   18
##########             Matchnum:                    1
##########                Cloud:                    1
##########        Electrostatic:           -39.207153
##########                 Gist:             0.000000
##########        Van der Waals:           -32.994240
##########  Ligand Polar Desolv:            12.740673
########## Ligand Apolar Desolv:            -5.421990
##########      Internal Energy:             0.000000
##########      Receptor Energy:             0.000000
########## Receptor Desolvation:             0.000000
########## Receptor Hydrophobic:             0.000000
##########         Total Energy:           -64.882713
##########        Ligand Charge:             1.000000
##########            Arbitrary:    +999.9990
##########        Ligand Energy:             0.000000

@<TRIPOS>MOLECULE
 ZINC000367056015      none
   49    51     0     0     0



@<TRIPOS>ATOM
      1 C1        -13.2215    13.9891   -11.8894 C.3        1  LIG1  -0.1200
      2 C2        -13.8824    14.5683   -13.1138 C.ar       1  LIG1  -0.0400
      3 C3        -14.7280    13.7847   -13.8769 C.ar       1  LIG1  -0.1100
      4 C4        -15.3357    14.3121   -15.0000 C.ar       1  LIG1  -0.0500
      5 C5        -16.2572    13.4568   -15.8308 C.3        1  LIG1  -0.1100
      6 C6        -15.0971    15.6308   -15.3622 C.ar       1  LIG1   0.1100
      7 N1        -15.7117    16.1680   -16.4992 N.am       1  LIG1  -0.6500
      8 C7        -16.9133    16.7695   -16.3952 C.2        1  LIG1   0.5100
      9 O1        -17.4622    16.8452   -15.3162 O.2        1  LIG1  -0.5100
     10 C8        -17.5750    17.3480   -17.6194 C.3        1  LIG1  -0.0300
     11 N2        -18.8705    16.6893   -17.8332 N.4        1  LIG1  -0.3800
     12 H1        -18.7947    15.7015   -17.6418 H          1  LIG1   0.4300
     13 C9        -19.9066    17.3018   -16.9621 C.3        1  LIG1  -0.0100
     14 C10       -21.2332    16.9408   -17.6784 C.3        1  LIG1  -0.1300
     15 C11       -20.8580    17.0536   -19.1693 C.3        1  LIG1  -0.1100
     16 C12       -19.3298    16.9060   -19.2236 C.3        1  LIG1   0.0000
     17 C13       -21.2797    18.4168   -19.7110 C.3        1  LIG1  -0.1100
     18 C14       -22.8093    18.5126   -19.6891 C.3        1  LIG1  -0.1600
     19 C15       -23.3957    17.3450   -20.4874 C.3        1  LIG1   0.0500
     20 O2        -22.9463    16.1098   -19.9266 O.3        1  LIG1  -0.3700
     21 C16       -21.5274    15.9355   -19.9622 C.3        1  LIG1   0.0700
     22 C17       -14.2468    16.4164   -14.5930 C.ar       1  LIG1  -0.0100
     23 Cl1       -13.9453    18.0663   -15.0409 Cl         1  LIG1  -0.0600
     24 C18       -13.6461    15.8840   -13.4681 C.ar       1  LIG1  -0.1100
     25 H2        -13.5242    12.9487   -11.7711 H          1  LIG1   0.0800
     26 H3        -12.1386    14.0420   -12.0017 H          1  LIG1   0.0800
     27 H4        -13.5238    14.5578   -11.0100 H          1  LIG1   0.0800
     28 H5        -14.9136    12.7588   -13.5949 H          1  LIG1   0.1400
     29 H6        -16.6383    14.0409   -16.6685 H          1  LIG1   0.0800
     30 H7        -15.7094    12.5937   -16.2089 H          1  LIG1   0.0600
     31 H8        -17.0905    13.1172   -15.2158 H          1  LIG1   0.0800
     32 H9        -15.2728    16.1073   -17.3622 H          1  LIG1   0.4200
     33 H10       -17.7302    18.4175   -17.4773 H          1  LIG1   0.1600
     34 H11       -16.9370    17.1856   -18.4881 H          1  LIG1   0.1600
     35 H12       -19.8772    16.8649   -15.9640 H          1  LIG1   0.1500
     36 H13       -19.7777    18.3831   -16.9135 H          1  LIG1   0.1300
     37 H14       -21.5400    15.9239   -17.4333 H          1  LIG1   0.1000
     38 H15       -22.0168    17.6539   -17.4224 H          1  LIG1   0.1200
     39 H16       -18.8820    17.8148   -19.6255 H          1  LIG1   0.1400
     40 H17       -19.0601    16.0515   -19.8443 H          1  LIG1   0.1400
     41 H18       -20.8563    19.2039   -19.0870 H          1  LIG1   0.0800
     42 H19       -20.9219    18.5292   -20.7343 H          1  LIG1   0.0800
     43 H20       -23.1629    18.4639   -18.6592 H          1  LIG1   0.0800
     44 H21       -23.1220    19.4549   -20.1389 H          1  LIG1   0.0900
     45 H22       -24.4841    17.3878   -20.4470 H          1  LIG1   0.1100
     46 H23       -23.0679    17.4135   -21.5248 H          1  LIG1   0.0600
     47 H24       -21.1832    15.9668   -20.9959 H          1  LIG1   0.0700
     48 H25       -21.2684    14.9726   -19.5219 H          1  LIG1   0.1000
     49 H26       -12.9852    16.4936   -12.8697 H          1  LIG1   0.1400
@<TRIPOS>BOND
     1    1    2 1
     2    1   25 1
     3    1   26 1
     4    1   27 1
     5    2   24 ar
     6    2    3 ar
     7    3    4 ar
     8    3   28 1
     9    4    5 1
    10    4    6 ar
    11    5   29 1
    12    5   30 1
    13    5   31 1
    14    6    7 1
    15    6   22 ar
    16    7    8 am
    17    7   32 1
    18    8    9 2
    19    8   10 1
    20   10   11 1
    21   10   33 1
    22   10   34 1
    23   11   12 1
    24   11   16 1
    25   11   13 1
    26   13   14 1
    27   13   35 1
    28   13   36 1
    29   14   15 1
    30   14   37 1
    31   14   38 1
    32   15   21 1
    33   15   16 1
    34   15   17 1
    35   16   39 1
    36   16   40 1
    37   17   18 1
    38   17   41 1
    39   17   42 1
    40   18   19 1
    41   18   43 1
    42   18   44 1
    43   19   20 1
    44   19   45 1
    45   19   46 1
    46   20   21 1
    47   21   47 1
    48   21   48 1
    49   22   23 1
    50   22   24 ar
    51   24   49 1
##########                 Name:     ZINC000042504853
##########          Protonation:                 none
##########               SMILES:   COC1=CC=C(C(=O)NC[C@@H](C)[NH+]2CCCC2)C=C1F
##########            Long Name:   NO_LONG_NAME
##########          FlexRecCode: 1
##########               Number:                 4748
##########   Ligand Source File: /nfs/db/export/3D/CE/ADRO/CEADRO.xaiw.db2.gz
##########                 Rank:                    1
##########               Setnum:                   76
##########             Matchnum:                    1
##########                Cloud:                    1
##########        Electrostatic:           -47.211224
##########                 Gist:             0.000000
##########        Van der Waals:           -27.566410
##########  Ligand Polar Desolv:            15.950284
########## Ligand Apolar Desolv:            -3.629575
##########      Internal Energy:             0.000000
##########      Receptor Energy:             0.000000
########## Receptor Desolvation:             0.000000
########## Receptor Hydrophobic:             0.000000
##########         Total Energy:           -62.456924
##########        Ligand Charge:             1.000000
##########            Arbitrary:    +999.9990
##########        Ligand Energy:             0.000000

@<TRIPOS>MOLECULE
 ZINC000042504853      none
   42    43     0     0     0



@<TRIPOS>ATOM
      1 C1        -15.0998    10.6848   -12.6579 C.3        1  LIG1   0.0200
      2 O1        -14.3767    11.1973   -13.7789 O.3        1  LIG1  -0.3000
      3 C2        -14.7748    12.3975   -14.2728 C.ar       1  LIG1   0.1400
      4 C3        -15.7429    12.4506   -15.2674 C.ar       1  LIG1  -0.1900
      5 C4        -16.1503    13.6664   -15.7713 C.ar       1  LIG1  -0.0200
      6 C5        -15.5890    14.8479   -15.2813 C.ar       1  LIG1  -0.1600
      7 C6        -16.0238    16.1521   -15.8187 C.2        1  LIG1   0.5800
      8 O2        -15.2658    17.1024   -15.7951 O.2        1  LIG1  -0.5200
      9 N1        -17.2609    16.2895   -16.3355 N.am       1  LIG1  -0.7300
     10 C7        -17.6923    17.5839   -16.8689 C.3        1  LIG1   0.1000
     11 C8        -18.0491    17.4323   -18.3490 C.3        1  LIG1   0.0200
     12 H1        -18.3701    18.3952   -18.7458 H          1  LIG1   0.1400
     13 C9        -16.8219    16.9455   -19.1222 C.3        1  LIG1  -0.1900
     14 N2        -19.1373    16.4559   -18.4928 N.4        1  LIG1  -0.3900
     15 H2        -18.8515    15.5596   -18.1285 H          1  LIG1   0.4300
     16 C10       -20.3513    16.9340   -17.7828 C.3        1  LIG1  -0.0100
     17 C11       -21.4963    16.1485   -18.4703 C.3        1  LIG1  -0.1400
     18 C12       -21.0486    16.1084   -19.9494 C.3        1  LIG1  -0.1400
     19 C13       -19.5239    16.3289   -19.9147 C.3        1  LIG1  -0.0100
     20 C14       -14.6150    14.7922   -14.2804 C.ar       1  LIG1  -0.0800
     21 C15       -14.2160    13.5722   -13.7773 C.ar       1  LIG1   0.0600
     22 F1        -13.2747    13.5162   -12.8099 F          1  LIG1  -0.1200
     23 H3        -14.6803     9.7226   -12.3642 H          1  LIG1   0.1100
     24 H4        -15.0227    11.3842   -11.8255 H          1  LIG1   0.0600
     25 H5        -16.1477    10.5569   -12.9291 H          1  LIG1   0.0700
     26 H6        -16.1768    11.5372   -15.6467 H          1  LIG1   0.1500
     27 H7        -16.9029    13.7059   -16.5449 H          1  LIG1   0.1500
     28 H8        -17.8657    15.5312   -16.3543 H          1  LIG1   0.4100
     29 H9        -18.5666    17.9307   -16.3181 H          1  LIG1   0.0900
     30 H10       -16.8848    18.3082   -16.7622 H          1  LIG1   0.0900
     31 H11       -17.0760    16.8373   -20.1766 H          1  LIG1   0.0900
     32 H12       -16.0143    17.6696   -19.0154 H          1  LIG1   0.0900
     33 H13       -16.5010    15.9822   -18.7253 H          1  LIG1   0.1000
     34 H14       -20.2987    16.6877   -16.7223 H          1  LIG1   0.1400
     35 H15       -20.4821    18.0068   -17.9237 H          1  LIG1   0.1300
     36 H16       -21.5717    15.1405   -18.0626 H          1  LIG1   0.1000
     37 H17       -22.4433    16.6788   -18.3682 H          1  LIG1   0.1200
     38 H18       -21.2796    15.1378   -20.3884 H          1  LIG1   0.1100
     39 H19       -21.5340    16.9048   -20.5134 H          1  LIG1   0.1000
     40 H20       -19.2687    17.2429   -20.4511 H          1  LIG1   0.1300
     41 H21       -19.0151    15.4765   -20.3650 H          1  LIG1   0.1300
     42 H22       -14.1786    15.7035   -13.8989 H          1  LIG1   0.1400
@<TRIPOS>BOND
     1    1    2 1
     2    1   23 1
     3    1   24 1
     4    1   25 1
     5    2    3 1
     6    3   21 ar
     7    3    4 ar
     8    4    5 ar
     9    4   26 1
    10    5    6 ar
    11    5   27 1
    12    6    7 1
    13    6   20 ar
    14    7    8 2
    15    7    9 am
    16    9   10 1
    17    9   28 1
    18   10   11 1
    19   10   29 1
    20   10   30 1
    21   11   12 1
    22   11   13 1
    23   11   14 1
    24   13   31 1
    25   13   32 1
    26   13   33 1
    27   14   15 1
    28   14   19 1
    29   14   16 1
    30   16   17 1
    31   16   34 1
    32   16   35 1
    33   17   18 1
    34   17   36 1
    35   17   37 1
    36   18   19 1
    37   18   38 1
    38   18   39 1
    39   19   40 1
    40   19   41 1
    41   20   21 ar
    42   20   42 1
    43   21   22 1
##########                 Name:     ZINC000189485966
##########          Protonation:                 none
##########               SMILES:   CC[NH+](CC)[C@H](C)CNC(=O)[C@@H](O)CC1=CC=CC(C(F)(F)F)=C1
##########            Long Name:   NO_LONG_NAME
##########          FlexRecCode: 1
##########               Number:                11184
##########   Ligand Source File: /nfs/db/export/3D/EE/ADRO/EEADRO.xbwf.db2.gz
##########                 Rank:                    1
##########               Setnum:                  500
##########             Matchnum:                    1
##########                Cloud:                    1
##########        Electrostatic:           -46.027058
##########                 Gist:             0.000000
##########        Van der Waals:           -31.664200
##########  Ligand Polar Desolv:            17.425013
########## Ligand Apolar Desolv:            -5.155962
##########      Internal Energy:             0.000000
##########      Receptor Energy:             0.000000
########## Receptor Desolvation:             0.000000
########## Receptor Hydrophobic:             0.000000
##########         Total Energy:           -65.422203
##########        Ligand Charge:             1.000000
##########            Arbitrary:    +999.9990
##########        Ligand Energy:             0.000000

@<TRIPOS>MOLECULE
 ZINC000189485966      none
   50    50     0     0     0



@<TRIPOS>ATOM
      1 C1        -22.2379    17.0933   -17.3653 C.3        1  LIG1  -0.1900
      2 C2        -21.0409    17.7283   -18.0758 C.3        1  LIG1  -0.0200
      3 N1        -20.2837    16.6878   -18.7844 N.4        1  LIG1  -0.3800
      4 H1        -19.9560    16.0005   -18.1222 H          1  LIG1   0.4300
      5 C3        -21.1529    16.0384   -19.7746 C.3        1  LIG1  -0.0300
      6 C4        -21.6498    17.0809   -20.7784 C.3        1  LIG1  -0.1900
      7 C5        -19.1345    17.2975   -19.4666 C.3        1  LIG1   0.0100
      8 H2        -19.4885    18.0399   -20.1818 H          1  LIG1   0.1500
      9 C6        -18.3458    16.2138   -20.2047 C.3        1  LIG1  -0.1800
     10 C7        -18.2291    17.9740   -18.4352 C.3        1  LIG1   0.0900
     11 N2        -17.7533    16.9762   -17.4739 N.am       1  LIG1  -0.7500
     12 C8        -16.9359    17.3455   -16.4680 C.2        1  LIG1   0.4900
     13 O1        -16.5943    18.5041   -16.3586 O.2        1  LIG1  -0.5000
     14 C9        -16.4464    16.3190   -15.4792 C.3        1  LIG1   0.1000
     15 H3        -16.2805    16.7955   -14.5130 H          1  LIG1   0.1300
     16 O2        -17.4253    15.2874   -15.3397 O.3        1  LIG1  -0.5200
     17 C10       -15.1344    15.7126   -15.9809 C.3        1  LIG1  -0.1100
     18 C11       -14.6450    14.6860   -14.9921 C.ar       1  LIG1  -0.0900
     19 C12       -15.0344    13.3658   -15.1169 C.ar       1  LIG1  -0.0900
     20 C13       -14.5853    12.4240   -14.2097 C.ar       1  LIG1  -0.1200
     21 C14       -13.7467    12.8027   -13.1783 C.ar       1  LIG1  -0.0700
     22 C15       -13.3566    14.1233   -13.0541 C.ar       1  LIG1  -0.1700
     23 C16       -12.4428    14.5363   -11.9292 C.3        1  LIG1   0.5100
     24 F1        -12.1279    13.4181   -11.1496 F          1  LIG1  -0.1700
     25 F2        -11.2681    15.0813   -12.4589 F          1  LIG1  -0.1700
     26 F3        -13.0839    15.4930   -11.1349 F          1  LIG1  -0.1700
     27 C17       -13.8021    15.0639   -13.9634 C.ar       1  LIG1  -0.0500
     28 H4        -22.7998    17.8654   -16.8394 H          1  LIG1   0.0800
     29 H5        -22.8829    16.6114   -18.0999 H          1  LIG1   0.0800
     30 H6        -21.8841    16.3509   -16.6500 H          1  LIG1   0.1100
     31 H7        -21.3949    18.4709   -18.7910 H          1  LIG1   0.1300
     32 H8        -20.3960    18.2102   -17.3409 H          1  LIG1   0.1400
     33 H9        -20.5912    15.2664   -20.3005 H          1  LIG1   0.1400
     34 H10       -22.0057    15.5861   -19.2685 H          1  LIG1   0.1300
     35 H11       -22.2948    16.5991   -21.5133 H          1  LIG1   0.0700
     36 H12       -22.2115    17.8529   -20.2525 H          1  LIG1   0.0900
     37 H13       -20.7970    17.5331   -21.2846 H          1  LIG1   0.1100
     38 H14       -17.4931    16.6662   -20.7108 H          1  LIG1   0.0900
     39 H15       -17.9920    15.4713   -19.4894 H          1  LIG1   0.0900
     40 H16       -18.9908    15.7319   -20.9394 H          1  LIG1   0.1100
     41 H17       -17.3764    18.4264   -18.9415 H          1  LIG1   0.1000
     42 H18       -18.7910    18.7461   -17.9093 H          1  LIG1   0.1100
     43 H19       -18.0265    16.0494   -17.5615 H          1  LIG1   0.4000
     44 H20       -17.6234    14.8193   -16.1624 H          1  LIG1   0.3900
     45 H21       -15.3003    15.2363   -16.9471 H          1  LIG1   0.0900
     46 H22       -14.3877    16.4996   -16.0872 H          1  LIG1   0.0900
     47 H23       -15.6895    13.0698   -15.9228 H          1  LIG1   0.1300
     48 H24       -14.8900    11.3924   -14.3069 H          1  LIG1   0.1400
     49 H25       -13.3966    12.0672   -12.4693 H          1  LIG1   0.1400
     50 H26       -13.4974    16.0955   -13.8664 H          1  LIG1   0.1300
@<TRIPOS>BOND
     1    1    2 1
     2    1   28 1
     3    1   29 1
     4    1   30 1
     5    2    3 1
     6    2   31 1
     7    2   32 1
     8    3    4 1
     9    3    5 1
    10    3    7 1
    11    5    6 1
    12    5   33 1
    13    5   34 1
    14    6   35 1
    15    6   36 1
    16    6   37 1
    17    7    8 1
    18    7    9 1
    19    7   10 1
    20    9   38 1
    21    9   39 1
    22    9   40 1
    23   10   11 1
    24   10   41 1
    25   10   42 1
    26   11   12 am
    27   11   43 1
    28   12   13 2
    29   12   14 1
    30   14   15 1
    31   14   16 1
    32   14   17 1
    33   16   44 1
    34   17   18 1
    35   17   45 1
    36   17   46 1
    37   18   27 ar
    38   18   19 ar
    39   19   20 ar
    40   19   47 1
    41   20   21 ar
    42   20   48 1
    43   21   22 ar
    44   21   49 1
    45   22   23 1
    46   22   27 ar
    47   23   24 1
    48   23   25 1
    49   23   26 1
    50   27   50 1
##########                 Name:     ZINC000657352395
##########          Protonation:                 none
##########               SMILES:   CCC1=NN2C[C@H]([NH2+]CC3=CC4=C(C)C=CC=C4N3)CCC2=N1
##########            Long Name:   NO_LONG_NAME
##########          FlexRecCode: 1
##########               Number:                 4767
##########   Ligand Source File: /nfs/db/export/3D/DF/ADRO/DFADRO.xazz.db2.gz
##########                 Rank:                    1
##########               Setnum:                   34
##########             Matchnum:                    1
##########                Cloud:                    1
##########        Electrostatic:           -53.469757
##########                 Gist:             0.000000
##########        Van der Waals:           -29.400610
##########  Ligand Polar Desolv:            23.232136
########## Ligand Apolar Desolv:            -4.716038
##########      Internal Energy:             0.000000
##########      Receptor Energy:             0.000000
########## Receptor Desolvation:             0.000000
########## Receptor Hydrophobic:             0.000000
##########         Total Energy:           -64.354271
##########        Ligand Charge:             1.000000
##########            Arbitrary:    +999.9990
##########        Ligand Energy:             0.000000

@<TRIPOS>MOLECULE
 ZINC000657352395      none
   47    50     0     0     0



@<TRIPOS>ATOM
      1 C1        -17.9107    21.2008   -24.0042 C.3        1  LIG1  -0.1500
      2 C2        -16.6772    20.4375   -23.5173 C.3        1  LIG1  -0.0400
      3 C3        -17.0546    19.5679   -22.3459 C.2        1  LIG1   0.2500
      4 N1        -16.2377    18.7866   -21.6843 N.2        1  LIG1  -0.3000
      5 N2        -16.9966    18.1698   -20.6859 N.pl3      1  LIG1  -0.3900
      6 C4        -16.5560    17.2070   -19.6762 C.3        1  LIG1   0.1200
      7 C5        -17.6076    17.1442   -18.5626 C.3        1  LIG1   0.0100
      8 H1        -17.5935    18.0756   -17.9965 H          1  LIG1   0.1600
      9 N3        -17.3040    16.0213   -17.6653 N.4        1  LIG1  -0.5000
     10 H2        -18.1333    15.7706   -17.1480 H          1  LIG1   0.4400
     11 H3        -16.9950    15.2299   -18.2097 H          1  LIG1   0.4300
     12 C6        -16.2433    16.4159   -16.7289 C.3        1  LIG1   0.0700
     13 C7        -15.9319    15.2639   -15.8084 C.2        1  LIG1  -0.0200
     14 C8        -15.0150    15.2869   -14.8282 C.2        1  LIG1  -0.1100
     15 C9        -15.0400    13.9698   -14.1874 C.ar       1  LIG1  -0.1300
     16 C10       -14.3344    13.3913   -13.1312 C.ar       1  LIG1  -0.0200
     17 C11       -13.2848    14.1859   -12.3977 C.3        1  LIG1  -0.1200
     18 C12       -14.5990    12.1017   -12.7641 C.ar       1  LIG1  -0.1400
     19 C13       -15.5638    11.3621   -13.4337 C.ar       1  LIG1  -0.0600
     20 C14       -16.2721    11.9136   -14.4791 C.ar       1  LIG1  -0.1400
     21 C15       -16.0195    13.2244   -14.8692 C.ar       1  LIG1   0.1300
     22 N4        -16.5459    14.0415   -15.8444 N.pl3      1  LIG1  -0.5900
     23 C16       -18.9947    16.9433   -19.1803 C.3        1  LIG1  -0.1500
     24 C17       -19.4039    18.2174   -19.9306 C.3        1  LIG1  -0.0400
     25 C18       -18.2545    18.6325   -20.8165 C.2        1  LIG1   0.2700
     26 N5        -18.2741    19.4739   -21.8116 N.2        1  LIG1  -0.5100
     27 H4        -17.6377    21.8299   -24.8515 H          1  LIG1   0.0800
     28 H5        -18.6792    20.4914   -24.3110 H          1  LIG1   0.0600
     29 H6        -18.2937    21.8249   -23.1968 H          1  LIG1   0.0600
     30 H7        -16.2941    19.8135   -24.3247 H          1  LIG1   0.1000
     31 H8        -15.9086    21.1470   -23.2106 H          1  LIG1   0.0900
     32 H9        -16.4476    16.2230   -20.1324 H          1  LIG1   0.1100
     33 H10       -15.6008    17.5262   -19.2593 H          1  LIG1   0.1200
     34 H11       -15.3475    16.6868   -17.2878 H          1  LIG1   0.1400
     35 H12       -16.5772    17.2708   -16.1409 H          1  LIG1   0.1600
     36 H13       -14.3793    16.1186   -14.5626 H          1  LIG1   0.1600
     37 H14       -12.8463    13.5707   -11.6120 H          1  LIG1   0.0800
     38 H15       -12.5063    14.4919   -13.0966 H          1  LIG1   0.0700
     39 H16       -13.7425    15.0700   -11.9540 H          1  LIG1   0.0700
     40 H17       -14.0527    11.6545   -11.9468 H          1  LIG1   0.1300
     41 H18       -15.7612    10.3439   -13.1325 H          1  LIG1   0.1400
     42 H19       -17.0207    11.3298   -14.9940 H          1  LIG1   0.1300
     43 H20       -17.2462    13.7878   -16.4658 H          1  LIG1   0.4200
     44 H21       -18.9654    16.1047   -19.8760 H          1  LIG1   0.1000
     45 H22       -19.7181    16.7374   -18.3912 H          1  LIG1   0.1200
     46 H23       -20.2849    18.0180   -20.5406 H          1  LIG1   0.1300
     47 H24       -19.6225    19.0109   -19.2160 H          1  LIG1   0.1200
@<TRIPOS>BOND
     1    1    2 1
     2    1   27 1
     3    1   28 1
     4    1   29 1
     5    2    3 1
     6    2   30 1
     7    2   31 1
     8    3   26 1
     9    3    4 2
    10    4    5 1
    11    5   25 1
    12    5    6 1
    13    6    7 1
    14    6   32 1
    15    6   33 1
    16    7    8 1
    17    7    9 1
    18    7   23 1
    19    9   10 1
    20    9   11 1
    21    9   12 1
    22   12   13 1
    23   12   34 1
    24   12   35 1
    25   13   22 1
    26   13   14 2
    27   14   15 1
    28   14   36 1
    29   15   21 ar
    30   15   16 ar
    31   16   17 1
    32   16   18 ar
    33   17   37 1
    34   17   38 1
    35   17   39 1
    36   18   19 ar
    37   18   40 1
    38   19   20 ar
    39   19   41 1
    40   20   21 ar
    41   20   42 1
    42   21   22 1
    43   22   43 1
    44   23   24 1
    45   23   44 1
    46   23   45 1
    47   24   25 1
    48   24   46 1
    49   24   47 1
    50   25   26 2
##########                 Name:     ZINC000162955966
##########          Protonation:                 none
##########               SMILES:   C[N@@H+](CC1=CN(C2=CC=C(Cl)C=C2)N=N1)CC1CC1
##########            Long Name:   NO_LONG_NAME
##########          FlexRecCode: 1
##########               Number:                 7664
##########   Ligand Source File: /nfs/db/export/3D/CF/ADMO/CFADMO.xasv.db2.gz
##########                 Rank:                    1
##########               Setnum:                   59
##########             Matchnum:                    1
##########                Cloud:                    1
##########        Electrostatic:           -43.873055
##########                 Gist:             0.000000
##########        Van der Waals:           -28.652330
##########  Ligand Polar Desolv:            15.091265
########## Ligand Apolar Desolv:            -5.681006
##########      Internal Energy:             0.000000
##########      Receptor Energy:             0.000000
########## Receptor Desolvation:             0.000000
########## Receptor Hydrophobic:             0.000000
##########         Total Energy:           -63.115124
##########        Ligand Charge:             1.000000
##########            Arbitrary:    +999.9990
##########        Ligand Energy:             0.000000

@<TRIPOS>MOLECULE
 ZINC000162955966      none
   37    39     0     0     0



@<TRIPOS>ATOM
      1 C1        -17.0349    15.6708   -19.2512 C.3        1  LIG1  -0.0500
      2 N1        -17.8698    16.4564   -18.3325 N.4        1  LIG1  -0.3800
      3 H1        -18.2947    15.8411   -17.6549 H          1  LIG1   0.4300
      4 C2        -17.0359    17.4474   -17.6393 C.3        1  LIG1   0.1000
      5 C3        -16.3010    16.7804   -16.5052 C.2        1  LIG1  -0.0900
      6 C4        -16.3678    15.4748   -16.1539 C.2        1  LIG1  -0.0100
      7 N2        -15.5423    15.3309   -15.0814 N.pl3      1  LIG1  -0.2200
      8 C5        -15.2988    14.1385   -14.3838 C.ar       1  LIG1   0.1000
      9 C6        -14.4336    14.1325   -13.2981 C.ar       1  LIG1  -0.1000
     10 C7        -14.1954    12.9573   -12.6129 C.ar       1  LIG1  -0.0900
     11 C8        -14.8185    11.7864   -13.0076 C.ar       1  LIG1  -0.0200
     12 Cl1       -14.5175    10.3109   -12.1440 Cl         1  LIG1  -0.0300
     13 C9        -15.6814    11.7899   -14.0895 C.ar       1  LIG1  -0.0900
     14 C10       -15.9271    12.9638   -14.7743 C.ar       1  LIG1  -0.0800
     15 N3        -15.0232    16.4793   -14.8189 N.2        1  LIG1  -0.0500
     16 N4        -15.4502    17.3612   -15.6518 N.2        1  LIG1  -0.2300
     17 C11       -18.9197    17.1463   -19.0937 C.3        1  LIG1   0.0300
     18 C12       -20.0575    17.5416   -18.1503 C.3        1  LIG1  -0.2200
     19 C13       -21.4740    17.5764   -18.7276 C.3        1  LIG1  -0.1700
     20 C14       -21.0666    16.4573   -17.7672 C.3        1  LIG1  -0.1500
     21 H2        -16.5759    16.3351   -19.9833 H          1  LIG1   0.1300
     22 H3        -16.2558    15.1588   -18.6863 H          1  LIG1   0.1300
     23 H4        -17.6536    14.9354   -19.7656 H          1  LIG1   0.1200
     24 H5        -16.3161    17.8704   -18.3398 H          1  LIG1   0.1500
     25 H6        -17.6689    18.2422   -17.2443 H          1  LIG1   0.1500
     26 H7        -16.9569    14.7037   -16.6284 H          1  LIG1   0.2100
     27 H8        -13.9470    15.0460   -12.9900 H          1  LIG1   0.1400
     28 H9        -13.5221    12.9521   -11.7685 H          1  LIG1   0.1600
     29 H10       -16.1665    10.8749   -14.3958 H          1  LIG1   0.1600
     30 H11       -16.6009    12.9662   -15.6183 H          1  LIG1   0.1600
     31 H12       -18.5041    18.0412   -19.5568 H          1  LIG1   0.1300
     32 H13       -19.3037    16.4817   -19.8676 H          1  LIG1   0.1300
     33 H14       -19.8039    18.2834   -17.3930 H          1  LIG1   0.1300
     34 H15       -22.1527    18.3414   -18.3501 H          1  LIG1   0.1100
     35 H16       -21.5953    17.3178   -19.7794 H          1  LIG1   0.1100
     36 H17       -20.9198    15.4622   -18.1872 H          1  LIG1   0.1100
     37 H18       -21.4772    16.4860   -16.7579 H          1  LIG1   0.1100
@<TRIPOS>BOND
     1    1    2 1
     2    1   21 1
     3    1   22 1
     4    1   23 1
     5    2    3 1
     6    2    4 1
     7    2   17 1
     8    4    5 1
     9    4   24 1
    10    4   25 1
    11    5   16 1
    12    5    6 2
    13    6    7 1
    14    6   26 1
    15    7    8 1
    16    7   15 1
    17    8   14 ar
    18    8    9 ar
    19    9   10 ar
    20    9   27 1
    21   10   11 ar
    22   10   28 1
    23   11   12 1
    24   11   13 ar
    25   13   14 ar
    26   13   29 1
    27   14   30 1
    28   15   16 2
    29   17   18 1
    30   17   31 1
    31   17   32 1
    32   18   20 1
    33   18   19 1
    34   18   33 1
    35   19   20 1
    36   19   34 1
    37   19   35 1
    38   20   36 1
    39   20   37 1
##########                 Name:     ZINC000668801835
##########          Protonation:                 none
##########               SMILES:   C[N@@H+](CC1=CN(C2=CC=CC=C2)N=C1C1=CC=CN=C1)C1(CO)CC1
##########            Long Name:   NO_LONG_NAME
##########          FlexRecCode: 1
##########               Number:                12264
##########   Ligand Source File: /nfs/db/export/3D/EF/ADMO/EFADMO.xasy.db2.gz
##########                 Rank:                    1
##########               Setnum:                   92
##########             Matchnum:                    1
##########                Cloud:                    1
##########        Electrostatic:           -43.321903
##########                 Gist:             0.000000
##########        Van der Waals:           -28.921139
##########  Ligand Polar Desolv:            14.218561
########## Ligand Apolar Desolv:            -5.015641
##########      Internal Energy:             0.000000
##########      Receptor Energy:             0.000000
########## Receptor Desolvation:             0.000000
########## Receptor Hydrophobic:             0.000000
##########         Total Energy:           -63.040123
##########        Ligand Charge:             1.000000
##########            Arbitrary:    +999.9990
##########        Ligand Energy:             0.000000

@<TRIPOS>MOLECULE
 ZINC000668801835      none
   48    51     0     0     0



@<TRIPOS>ATOM
      1 C1        -16.9988    15.8257   -19.1040 C.3        1  LIG1  -0.0500
      2 N1        -18.0442    16.4895   -18.3137 N.4        1  LIG1  -0.3500
      3 H1        -18.4733    15.8194   -17.6933 H          1  LIG1   0.4200
      4 C2        -17.4464    17.5746   -17.5243 C.3        1  LIG1   0.0800
      5 C3        -16.4018    17.0060   -16.5988 C.2        1  LIG1  -0.3000
      6 C4        -16.5304    15.8946   -15.8422 C.2        1  LIG1   0.1100
      7 N2        -15.3717    15.7229   -15.1536 N.pl3      1  LIG1  -0.2900
      8 C5        -15.0942    14.6847   -14.2546 C.ar       1  LIG1   0.1300
      9 C6        -14.2323    14.9005   -13.1874 C.ar       1  LIG1  -0.1300
     10 C7        -13.9610    13.8754   -12.3026 C.ar       1  LIG1  -0.0900
     11 C8        -14.5466    12.6350   -12.4785 C.ar       1  LIG1  -0.1100
     12 C9        -15.4054    12.4171   -13.5402 C.ar       1  LIG1  -0.0900
     13 C10       -15.6847    13.4398   -14.4255 C.ar       1  LIG1  -0.1100
     14 N3        -14.5030    16.7656   -15.5006 N.2        1  LIG1  -0.2500
     15 C11       -15.1161    17.5365   -16.3741 C.2        1  LIG1   0.1400
     16 C12       -14.5544    18.7567   -17.0047 C.ar       1  LIG1  -0.1000
     17 C13       -14.1421    19.8362   -16.2193 C.ar       1  LIG1  -0.0400
     18 C14       -13.6249    20.9518   -16.8558 C.ar       1  LIG1  -0.1600
     19 C15       -13.5337    20.9618   -18.2355 C.ar       1  LIG1   0.1200
     20 N4        -13.9316    19.9273   -18.9508 N.ar       1  LIG1  -0.4700
     21 C16       -14.4243    18.8422   -18.3895 C.ar       1  LIG1   0.1100
     22 C17       -19.0624    17.0438   -19.2159 C.3        1  LIG1  -0.0700
     23 C18       -18.5379    17.9778   -20.3084 C.3        1  LIG1   0.1100
     24 O1        -18.3117    19.2764   -19.7567 O.3        1  LIG1  -0.5600
     25 C19       -20.2602    16.1562   -19.5597 C.3        1  LIG1  -0.1400
     26 C20       -20.4386    17.3527   -18.6231 C.3        1  LIG1  -0.1300
     27 H2        -16.5352    16.5496   -19.7741 H          1  LIG1   0.1200
     28 H3        -16.2434    15.4144   -18.4344 H          1  LIG1   0.1200
     29 H4        -17.4424    15.0204   -19.6897 H          1  LIG1   0.1300
     30 H5        -16.9827    18.2985   -18.1944 H          1  LIG1   0.1400
     31 H6        -18.2220    18.0672   -16.9379 H          1  LIG1   0.1300
     32 H7        -17.3997    15.2558   -15.7932 H          1  LIG1   0.1900
     33 H8        -13.7742    15.8688   -13.0497 H          1  LIG1   0.1300
     34 H9        -13.2904    14.0424   -11.4726 H          1  LIG1   0.1400
     35 H10       -14.3327    11.8349   -11.7854 H          1  LIG1   0.1400
     36 H11       -15.8609    11.4472   -13.6752 H          1  LIG1   0.1400
     37 H12       -16.3558    13.2689   -15.2543 H          1  LIG1   0.1400
     38 H13       -14.2251    19.8016   -15.1431 H          1  LIG1   0.1400
     39 H14       -13.2965    21.8050   -16.2808 H          1  LIG1   0.1500
     40 H15       -13.1308    21.8303   -18.7353 H          1  LIG1   0.1700
     41 H16       -14.7395    18.0154   -19.0087 H          1  LIG1   0.1600
     42 H17       -17.6024    17.5835   -20.7052 H          1  LIG1   0.0700
     43 H18       -19.2725    18.0467   -21.1108 H          1  LIG1   0.0700
     44 H19       -19.1031    19.6890   -19.3844 H          1  LIG1   0.4100
     45 H20       -20.6747    16.2374   -20.5645 H          1  LIG1   0.1400
     46 H21       -20.2927    15.1609   -19.1165 H          1  LIG1   0.1200
     47 H22       -20.5885    17.1447   -17.5637 H          1  LIG1   0.1200
     48 H23       -20.9706    18.2212   -19.0116 H          1  LIG1   0.1400
@<TRIPOS>BOND
     1    1    2 1
     2    1   27 1
     3    1   28 1
     4    1   29 1
     5    2    3 1
     6    2    4 1
     7    2   22 1
     8    4    5 1
     9    4   30 1
    10    4   31 1
    11    5   15 1
    12    5    6 2
    13    6    7 1
    14    6   32 1
    15    7    8 1
    16    7   14 1
    17    8   13 ar
    18    8    9 ar
    19    9   10 ar
    20    9   33 1
    21   10   11 ar
    22   10   34 1
    23   11   12 ar
    24   11   35 1
    25   12   13 ar
    26   12   36 1
    27   13   37 1
    28   14   15 2
    29   15   16 1
    30   16   21 ar
    31   16   17 ar
    32   17   18 ar
    33   17   38 1
    34   18   19 ar
    35   18   39 1
    36   19   20 ar
    37   19   40 1
    38   20   21 ar
    39   21   41 1
    40   22   26 1
    41   22   23 1
    42   22   25 1
    43   23   24 1
    44   23   42 1
    45   23   43 1
    46   24   44 1
    47   25   26 1
    48   25   45 1
    49   25   46 1
    50   26   47 1
    51   26   48 1
##########                 Name:     ZINC000407246554
##########          Protonation:                 none
##########               SMILES:   CN(C)C1=CC=C(NC(=O)[C@H]2CC[C@@H](C3CC3)[NH2+]2)C=N1
##########            Long Name:   NO_LONG_NAME
##########          FlexRecCode: 1
##########               Number:                 7201
##########   Ligand Source File: /nfs/db/export/3D/CD/ADRO/CDADRO.xcmt.db2.gz
##########                 Rank:                    1
##########               Setnum:                   40
##########             Matchnum:                    1
##########                Cloud:                    1
##########        Electrostatic:           -46.104786
##########                 Gist:             0.000000
##########        Van der Waals:           -26.911388
##########  Ligand Polar Desolv:            14.181506
########## Ligand Apolar Desolv:            -3.701759
##########      Internal Energy:             0.000000
##########      Receptor Energy:             0.000000
########## Receptor Desolvation:             0.000000
########## Receptor Hydrophobic:             0.000000
##########         Total Energy:           -62.536427
##########        Ligand Charge:             1.000000
##########            Arbitrary:    +999.9990
##########        Ligand Energy:             0.000000

@<TRIPOS>MOLECULE
 ZINC000407246554      none
   43    45     0     0     0



@<TRIPOS>ATOM
      1 C1        -13.4010    13.4501   -11.9487 C.3        1  LIG1   0.0900
      2 N1        -13.0294    14.2596   -13.1117 N.pl3      1  LIG1  -0.6100
      3 C2        -11.6459    14.7119   -13.2773 C.3        1  LIG1   0.0900
      4 C3        -13.9910    14.5990   -14.0595 C.ar       1  LIG1   0.4100
      5 C4        -15.0626    13.7427   -14.2890 C.ar       1  LIG1  -0.2200
      6 C5        -16.0125    14.0894   -15.2322 C.ar       1  LIG1  -0.0200
      7 C6        -15.8571    15.2915   -15.9202 C.ar       1  LIG1  -0.0100
      8 N2        -16.7958    15.6835   -16.8848 N.am       1  LIG1  -0.6300
      9 C7        -17.0272    16.9925   -17.1069 C.2        1  LIG1   0.5000
     10 O1        -16.4234    17.8314   -16.4723 O.2        1  LIG1  -0.5200
     11 C8        -18.0363    17.4140   -18.1438 C.3        1  LIG1   0.0100
     12 H1        -18.0980    18.5012   -18.1933 H          1  LIG1   0.1700
     13 C9        -17.6647    16.8323   -19.5246 C.3        1  LIG1  -0.1400
     14 C10       -19.0114    16.4630   -20.1799 C.3        1  LIG1  -0.1400
     15 C11       -20.0837    16.8526   -19.1398 C.3        1  LIG1   0.0700
     16 H2        -20.4677    17.8517   -19.3455 H          1  LIG1   0.1500
     17 C12       -21.2244    15.8328   -19.1417 C.3        1  LIG1  -0.2100
     18 C13       -22.6265    16.3407   -18.7999 C.3        1  LIG1  -0.1700
     19 C14       -22.2816    15.9577   -20.2405 C.3        1  LIG1  -0.1500
     20 N3        -19.3686    16.8330   -17.8363 N.4        1  LIG1  -0.5000
     21 H3        -19.2701    15.8861   -17.5021 H          1  LIG1   0.4400
     22 H4        -19.8569    17.3978   -17.1575 H          1  LIG1   0.4400
     23 C15       -14.7629    16.0952   -15.6387 C.ar       1  LIG1   0.1600
     24 N4        -13.8780    15.7357   -14.7284 N.ar       1  LIG1  -0.5200
     25 H5        -14.4634    13.2108   -11.9970 H          1  LIG1   0.0600
     26 H6        -12.8206    12.5275   -11.9476 H          1  LIG1   0.0700
     27 H7        -13.1958    14.0096   -11.0359 H          1  LIG1   0.0800
     28 H8        -11.5621    15.2966   -14.1935 H          1  LIG1   0.0500
     29 H9        -11.3609    15.3289   -12.4252 H          1  LIG1   0.0800
     30 H10       -10.9855    13.8469   -13.3367 H          1  LIG1   0.0700
     31 H11       -15.1516    12.8184   -13.7375 H          1  LIG1   0.1400
     32 H12       -16.8550    13.4436   -15.4314 H          1  LIG1   0.1500
     33 H13       -17.2788    15.0127   -17.3923 H          1  LIG1   0.4200
     34 H14       -17.1451    17.5806   -20.1231 H          1  LIG1   0.1200
     35 H15       -17.0447    15.9435   -19.4066 H          1  LIG1   0.1100
     36 H16       -19.1529    17.0300   -21.0999 H          1  LIG1   0.1200
     37 H17       -19.0526    15.3929   -20.3835 H          1  LIG1   0.1100
     38 H18       -20.9580    14.8288   -18.8114 H          1  LIG1   0.1300
     39 H19       -23.2828    15.6708   -18.2445 H          1  LIG1   0.1100
     40 H20       -22.7364    17.4013   -18.5737 H          1  LIG1   0.1100
     41 H21       -22.1646    16.7663   -20.9620 H          1  LIG1   0.1100
     42 H22       -22.7111    15.0359   -20.6328 H          1  LIG1   0.1100
     43 H23       -14.6356    17.0282   -16.1677 H          1  LIG1   0.1600
@<TRIPOS>BOND
     1    1    2 1
     2    1   25 1
     3    1   26 1
     4    1   27 1
     5    2    3 1
     6    2    4 1
     7    3   28 1
     8    3   29 1
     9    3   30 1
    10    4   24 ar
    11    4    5 ar
    12    5    6 ar
    13    5   31 1
    14    6    7 ar
    15    6   32 1
    16    7    8 1
    17    7   23 ar
    18    8    9 am
    19    8   33 1
    20    9   10 2
    21    9   11 1
    22   11   12 1
    23   11   20 1
    24   11   13 1
    25   13   14 1
    26   13   34 1
    27   13   35 1
    28   14   15 1
    29   14   36 1
    30   14   37 1
    31   15   16 1
    32   15   17 1
    33   15   20 1
    34   17   19 1
    35   17   18 1
    36   17   38 1
    37   18   19 1
    38   18   39 1
    39   18   40 1
    40   19   41 1
    41   19   42 1
    42   20   21 1
    43   20   22 1
    44   23   24 ar
    45   23   43 1
##########                 Name:     ZINC000078473478
##########          Protonation:                 none
##########               SMILES:   C[NH+](C)C1(CNC(=O)C2=CN(C3=CC=CC=C3)N=C2)CCCCC1
##########            Long Name:   NO_LONG_NAME
##########          FlexRecCode: 1
##########               Number:                 9638
##########   Ligand Source File: /nfs/db/export/3D/EF/ADRO/EFADRO.xclx.db2.gz
##########                 Rank:                    1
##########               Setnum:                   16
##########             Matchnum:                    1
##########                Cloud:                    1
##########        Electrostatic:           -41.333092
##########                 Gist:             0.000000
##########        Van der Waals:           -33.461426
##########  Ligand Polar Desolv:            16.382141
########## Ligand Apolar Desolv:            -4.843762
##########      Internal Energy:             0.000000
##########      Receptor Energy:             0.000000
########## Receptor Desolvation:             0.000000
########## Receptor Hydrophobic:             0.000000
##########         Total Energy:           -63.256138
##########        Ligand Charge:             1.000000
##########            Arbitrary:    +999.9990
##########        Ligand Energy:             0.000000

@<TRIPOS>MOLECULE
 ZINC000078473478      none
   51    53     0     0     0



@<TRIPOS>ATOM
      1 C1        -20.3531    17.4865   -18.4680 C.3        1  LIG1  -0.0600
      2 N1        -19.2052    16.7740   -19.0443 N.4        1  LIG1  -0.3800
      3 H1        -18.8214    16.1429   -18.3568 H          1  LIG1   0.4200
      4 C2        -19.6430    16.0099   -20.2201 C.3        1  LIG1  -0.0600
      5 C3        -18.1778    17.7443   -19.4457 C.3        1  LIG1   0.0500
      6 C4        -17.7215    18.5400   -18.2211 C.3        1  LIG1   0.1000
      7 N2        -17.1644    17.6237   -17.2232 N.am       1  LIG1  -0.7500
      8 C5        -15.8853    17.7616   -16.8212 C.2        1  LIG1   0.6100
      9 O1        -15.1938    18.6469   -17.2871 O.2        1  LIG1  -0.5200
     10 C6        -15.3246    16.8395   -15.8171 C.2        1  LIG1  -0.3000
     11 C7        -15.7311    15.5417   -15.5789 C.2        1  LIG1   0.1400
     12 N3        -14.9632    15.0558   -14.5869 N.pl3      1  LIG1  -0.3000
     13 C8        -15.0495    13.7684   -14.0396 C.ar       1  LIG1   0.1300
     14 C9        -14.1975    13.3917   -13.0101 C.ar       1  LIG1  -0.1300
     15 C10       -14.2849    12.1223   -12.4728 C.ar       1  LIG1  -0.0900
     16 C11       -15.2193    11.2268   -12.9596 C.ar       1  LIG1  -0.1100
     17 C12       -16.0693    11.5990   -13.9848 C.ar       1  LIG1  -0.1000
     18 C13       -15.9909    12.8691   -14.5220 C.ar       1  LIG1  -0.1100
     19 N4        -14.0637    16.0531   -14.1938 N.2        1  LIG1  -0.2800
     20 C14       -14.2662    17.1164   -14.9223 C.2        1  LIG1   0.0800
     21 C15       -16.9821    17.0021   -20.0461 C.3        1  LIG1  -0.1300
     22 C16       -15.9122    18.0126   -20.4641 C.3        1  LIG1  -0.1200
     23 C17       -16.4940    18.9696   -21.5065 C.3        1  LIG1  -0.1300
     24 C18       -17.6897    19.7119   -20.9061 C.3        1  LIG1  -0.1200
     25 C19       -18.7596    18.7014   -20.4880 C.3        1  LIG1  -0.1300
     26 H2        -20.7677    18.1683   -19.2105 H          1  LIG1   0.1300
     27 H3        -21.1154    16.7667   -18.1702 H          1  LIG1   0.1300
     28 H4        -20.0283    18.0535   -17.5957 H          1  LIG1   0.1300
     29 H5        -18.7910    15.4812   -20.6477 H          1  LIG1   0.1300
     30 H6        -20.4052    15.2898   -19.9223 H          1  LIG1   0.1300
     31 H7        -20.0575    16.6917   -20.9627 H          1  LIG1   0.1300
     32 H8        -16.9593    19.2600   -18.5189 H          1  LIG1   0.1000
     33 H9        -18.5734    19.0687   -17.7934 H          1  LIG1   0.1200
     34 H10       -17.7160    16.9176   -16.8514 H          1  LIG1   0.3900
     35 H11       -16.5203    15.0140   -16.0939 H          1  LIG1   0.2000
     36 H12       -13.4670    14.0905   -12.6300 H          1  LIG1   0.1300
     37 H13       -13.6224    11.8287   -11.6720 H          1  LIG1   0.1400
     38 H14       -15.2853    10.2344   -12.5384 H          1  LIG1   0.1400
     39 H15       -16.7981    10.8973   -14.3629 H          1  LIG1   0.1400
     40 H16       -16.6550    13.1592   -15.3227 H          1  LIG1   0.1400
     41 H17       -13.7238    18.0474   -14.8501 H          1  LIG1   0.1900
     42 H18       -16.5676    16.3202   -19.3035 H          1  LIG1   0.0900
     43 H19       -17.3072    16.4352   -20.9185 H          1  LIG1   0.1000
     44 H20       -15.5871    18.5795   -19.5918 H          1  LIG1   0.0800
     45 H21       -15.0604    17.4838   -20.8919 H          1  LIG1   0.0900
     46 H22       -15.7317    19.6896   -21.8043 H          1  LIG1   0.0800
     47 H23       -16.8191    18.4028   -22.3789 H          1  LIG1   0.0700
     48 H24       -17.3646    20.2788   -20.0336 H          1  LIG1   0.0800
     49 H25       -18.1042    20.3937   -21.6486 H          1  LIG1   0.0900
     50 H26       -19.0847    18.1345   -21.3603 H          1  LIG1   0.0900
     51 H27       -19.6115    19.2301   -20.0603 H          1  LIG1   0.0800
@<TRIPOS>BOND
     1    1    2 1
     2    1   26 1
     3    1   27 1
     4    1   28 1
     5    2    3 1
     6    2    4 1
     7    2    5 1
     8    4   29 1
     9    4   30 1
    10    4   31 1
    11    5   25 1
    12    5    6 1
    13    5   21 1
    14    6    7 1
    15    6   32 1
    16    6   33 1
    17    7    8 am
    18    7   34 1
    19    8    9 2
    20    8   10 1
    21   10   20 1
    22   10   11 2
    23   11   12 1
    24   11   35 1
    25   12   13 1
    26   12   19 1
    27   13   18 ar
    28   13   14 ar
    29   14   15 ar
    30   14   36 1
    31   15   16 ar
    32   15   37 1
    33   16   17 ar
    34   16   38 1
    35   17   18 ar
    36   17   39 1
    37   18   40 1
    38   19   20 2
    39   20   41 1
    40   21   22 1
    41   21   42 1
    42   21   43 1
    43   22   23 1
    44   22   44 1
    45   22   45 1
    46   23   24 1
    47   23   46 1
    48   23   47 1
    49   24   25 1
    50   24   48 1
    51   24   49 1
    52   25   50 1
    53   25   51 1
##########                 Name:     ZINC000424873348
##########          Protonation:                 none
##########               SMILES:   CC[C@H](C(=O)NCC(=O)C1=C(F)C=CC=C1Cl)[NH+](C)C
##########            Long Name:   NO_LONG_NAME
##########          FlexRecCode: 1
##########               Number:                 9998
##########   Ligand Source File: /nfs/db/export/3D/DE/ADMO/DEADMO.xajn.db2.gz
##########                 Rank:                    1
##########               Setnum:                   74
##########             Matchnum:                    1
##########                Cloud:                    1
##########        Electrostatic:           -46.560425
##########                 Gist:             0.000000
##########        Van der Waals:           -28.077860
##########  Ligand Polar Desolv:            13.185125
########## Ligand Apolar Desolv:            -4.071495
##########      Internal Energy:             0.000000
##########      Receptor Energy:             0.000000
########## Receptor Desolvation:             0.000000
########## Receptor Hydrophobic:             0.000000
##########         Total Energy:           -65.524651
##########        Ligand Charge:             1.000000
##########            Arbitrary:    +999.9990
##########        Ligand Energy:             0.000000

@<TRIPOS>MOLECULE
 ZINC000424873348      none
   39    39     0     0     0



@<TRIPOS>ATOM
      1 C1        -15.3813    17.2079   -19.3529 C.3        1  LIG1  -0.1700
      2 C2        -16.6768    16.4036   -19.4776 C.3        1  LIG1  -0.1500
      3 C3        -17.7704    17.0642   -18.6359 C.3        1  LIG1   0.0100
      4 H1        -17.9383    18.0808   -18.9915 H          1  LIG1   0.1600
      5 C4        -17.3394    17.1017   -17.1924 C.2        1  LIG1   0.5100
      6 O1        -17.2314    18.1650   -16.6191 O.2        1  LIG1  -0.5200
      7 N1        -17.0740    15.9536   -16.5383 N.am       1  LIG1  -0.6900
      8 C5        -16.6550    15.9900   -15.1350 C.3        1  LIG1   0.0700
      9 C6        -15.2905    15.3643   -15.0017 C.2        1  LIG1   0.3900
     10 O2        -14.3467    15.8339   -15.6015 O.2        1  LIG1  -0.4200
     11 C7        -15.1035    14.1856   -14.1454 C.ar       1  LIG1  -0.2100
     12 C8        -15.8052    13.0019   -14.4118 C.ar       1  LIG1   0.1600
     13 F1        -16.6575    12.9399   -15.4582 F          1  LIG1  -0.1200
     14 C9        -15.6218    11.8981   -13.6002 C.ar       1  LIG1  -0.1600
     15 C10       -14.7496    11.9600   -12.5291 C.ar       1  LIG1  -0.0300
     16 C11       -14.0525    13.1252   -12.2590 C.ar       1  LIG1  -0.1300
     17 C12       -14.2182    14.2356   -13.0608 C.ar       1  LIG1   0.0400
     18 Cl1       -13.3419    15.6947   -12.7191 Cl         1  LIG1  -0.0100
     19 N2        -19.0142    16.2919   -18.7556 N.4        1  LIG1  -0.3700
     20 H2        -18.8587    15.3508   -18.4263 H          1  LIG1   0.4300
     21 C13       -20.0641    16.9261   -17.9474 C.3        1  LIG1  -0.0800
     22 C14       -19.4344    16.2552   -20.1628 C.3        1  LIG1  -0.0700
     23 H3        -14.6022    16.7372   -19.9525 H          1  LIG1   0.0900
     24 H4        -15.5492    18.2246   -19.7085 H          1  LIG1   0.0600
     25 H5        -15.0696    17.2351   -18.3087 H          1  LIG1   0.0800
     26 H6        -16.9885    16.3764   -20.5217 H          1  LIG1   0.1000
     27 H7        -16.5089    15.3870   -19.1219 H          1  LIG1   0.1200
     28 H8        -17.1603    15.1031   -16.9969 H          1  LIG1   0.4200
     29 H9        -16.6151    17.0246   -14.7945 H          1  LIG1   0.1200
     30 H10       -17.3700    15.4350   -14.5278 H          1  LIG1   0.1200
     31 H11       -16.1617    10.9849   -13.8030 H          1  LIG1   0.1600
     32 H12       -14.6114    11.0938   -11.8990 H          1  LIG1   0.1600
     33 H13       -13.3734    13.1638   -11.4201 H          1  LIG1   0.1500
     34 H14       -20.9872    16.3531   -18.0362 H          1  LIG1   0.1300
     35 H15       -19.7524    16.9534   -16.9032 H          1  LIG1   0.1200
     36 H16       -20.2322    17.9427   -18.3031 H          1  LIG1   0.1500
     37 H17       -20.3573    15.6820   -20.2515 H          1  LIG1   0.1200
     38 H18       -19.6022    17.2717   -20.5185 H          1  LIG1   0.1300
     39 H19       -18.6553    15.7843   -20.7624 H          1  LIG1   0.1400
@<TRIPOS>BOND
     1    1    2 1
     2    1   23 1
     3    1   24 1
     4    1   25 1
     5    2    3 1
     6    2   26 1
     7    2   27 1
     8    3    4 1
     9    3    5 1
    10    3   19 1
    11    5    6 2
    12    5    7 am
    13    7    8 1
    14    7   28 1
    15    8    9 1
    16    8   29 1
    17    8   30 1
    18    9   10 2
    19    9   11 1
    20   11   17 ar
    21   11   12 ar
    22   12   13 1
    23   12   14 ar
    24   14   15 ar
    25   14   31 1
    26   15   16 ar
    27   15   32 1
    28   16   17 ar
    29   16   33 1
    30   17   18 1
    31   19   20 1
    32   19   21 1
    33   19   22 1
    34   21   34 1
    35   21   35 1
    36   21   36 1
    37   22   37 1
    38   22   38 1
    39   22   39 1
##########                 Name:     ZINC000348536054
##########          Protonation:                 none
##########               SMILES:   C[C@@H]([NH2+]C[C@H]1CCCO1)C1=CN(C2=CC=CC=C2)N=N1
##########            Long Name:   NO_LONG_NAME
##########          FlexRecCode: 1
##########               Number:                 2265
##########   Ligand Source File: /nfs/db/export/3D/CE/ADRO/CEADRO.xagt.db2.gz
##########                 Rank:                    1
##########               Setnum:                   22
##########             Matchnum:                    1
##########                Cloud:                    1
##########        Electrostatic:           -42.184631
##########                 Gist:             0.000000
##########        Van der Waals:           -30.369194
##########  Ligand Polar Desolv:            13.094927
########## Ligand Apolar Desolv:            -4.092345
##########      Internal Energy:             0.000000
##########      Receptor Energy:             0.000000
########## Receptor Desolvation:             0.000000
########## Receptor Hydrophobic:             0.000000
##########         Total Energy:           -63.551243
##########        Ligand Charge:             1.000000
##########            Arbitrary:    +999.9990
##########        Ligand Energy:             0.000000

@<TRIPOS>MOLECULE
 ZINC000348536054      none
   41    43     0     0     0



@<TRIPOS>ATOM
      1 C1        -16.3490    15.7368   -19.4819 C.3        1  LIG1  -0.1800
      2 C2        -16.6772    16.6784   -18.3214 C.3        1  LIG1   0.1400
      3 H1        -16.3554    17.6894   -18.5718 H          1  LIG1   0.1500
      4 N1        -18.1261    16.6714   -18.0798 N.4        1  LIG1  -0.5000
      5 H2        -18.4782    15.7305   -18.1739 H          1  LIG1   0.4400
      6 H3        -18.3132    17.0088   -17.1474 H          1  LIG1   0.4300
      7 C3        -18.7900    17.5429   -19.0584 C.3        1  LIG1  -0.0100
      8 C4        -20.2991    17.5356   -18.8067 C.3        1  LIG1   0.0500
      9 H4        -20.7622    18.4112   -19.2615 H          1  LIG1   0.1000
     10 C5        -20.9321    16.2385   -19.3705 C.3        1  LIG1  -0.1500
     11 C6        -22.2061    16.1251   -18.4896 C.3        1  LIG1  -0.1600
     12 C7        -21.7210    16.6910   -17.1377 C.3        1  LIG1   0.0500
     13 O1        -20.5691    17.5047   -17.3961 O.3        1  LIG1  -0.3900
     14 C8        -15.9586    16.2155   -17.0803 C.2        1  LIG1  -0.0900
     15 C9        -16.0950    15.0175   -16.4651 C.2        1  LIG1   0.0000
     16 N2        -15.2557    15.0467   -15.3940 N.pl3      1  LIG1  -0.2200
     17 C10       -15.0682    14.0116   -14.4665 C.ar       1  LIG1   0.0900
     18 C11       -14.1807    14.1753   -13.4115 C.ar       1  LIG1  -0.1100
     19 C12       -13.9981    13.1542   -12.4997 C.ar       1  LIG1  -0.1000
     20 C13       -14.6980    11.9696   -12.6367 C.ar       1  LIG1  -0.0900
     21 C14       -15.5823    11.8034   -13.6867 C.ar       1  LIG1  -0.1000
     22 C15       -15.7737    12.8233   -14.5982 C.ar       1  LIG1  -0.0900
     23 N3        -14.6636    16.1897   -15.3806 N.2        1  LIG1  -0.0400
     24 N4        -15.0565    16.9059   -16.3737 N.2        1  LIG1  -0.2600
     25 H5        -16.6708    14.7259   -19.2316 H          1  LIG1   0.0900
     26 H6        -16.8686    16.0717   -20.3796 H          1  LIG1   0.0900
     27 H7        -15.2740    15.7419   -19.6611 H          1  LIG1   0.1100
     28 H8        -18.4096    18.5594   -18.9566 H          1  LIG1   0.1500
     29 H9        -18.5878    17.1785   -20.0655 H          1  LIG1   0.1400
     30 H10       -21.1912    16.3532   -20.4230 H          1  LIG1   0.1000
     31 H11       -20.2735    15.3829   -19.2210 H          1  LIG1   0.0900
     32 H12       -23.0145    16.7323   -18.8967 H          1  LIG1   0.0900
     33 H13       -22.5150    15.0849   -18.3864 H          1  LIG1   0.1000
     34 H14       -22.5069    17.2976   -16.6874 H          1  LIG1   0.0800
     35 H15       -21.4544    15.8729   -16.4685 H          1  LIG1   0.0800
     36 H16       -16.7392    14.2037   -16.7635 H          1  LIG1   0.2100
     37 H17       -13.6334    15.1002   -13.3042 H          1  LIG1   0.1400
     38 H18       -13.3075    13.2809   -11.6790 H          1  LIG1   0.1400
     39 H19       -14.5536    11.1725   -11.9224 H          1  LIG1   0.1400
     40 H20       -16.1275    10.8770   -13.7914 H          1  LIG1   0.1500
     41 H21       -16.4648    12.6932   -15.4179 H          1  LIG1   0.1500
@<TRIPOS>BOND
     1    1    2 1
     2    1   25 1
     3    1   26 1
     4    1   27 1
     5    2    3 1
     6    2    4 1
     7    2   14 1
     8    4    5 1
     9    4    6 1
    10    4    7 1
    11    7    8 1
    12    7   28 1
    13    7   29 1
    14    8    9 1
    15    8   13 1
    16    8   10 1
    17   10   11 1
    18   10   30 1
    19   10   31 1
    20   11   12 1
    21   11   32 1
    22   11   33 1
    23   12   13 1
    24   12   34 1
    25   12   35 1
    26   14   24 1
    27   14   15 2
    28   15   16 1
    29   15   36 1
    30   16   17 1
    31   16   23 1
    32   17   22 ar
    33   17   18 ar
    34   18   19 ar
    35   18   37 1
    36   19   20 ar
    37   19   38 1
    38   20   21 ar
    39   20   39 1
    40   21   22 ar
    41   21   40 1
    42   22   41 1
    43   23   24 2
##########                 Name:     ZINC000187712003
##########          Protonation:                 none
##########               SMILES:   CSC[C@H](O)C[N@@H+](C)CC1=CN(C2=CC=CC=C2)N=C1
##########            Long Name:   NO_LONG_NAME
##########          FlexRecCode: 1
##########               Number:                  162
##########   Ligand Source File: /nfs/db/export/3D/CE/ADMO/CEADMO.xakp.db2.gz
##########                 Rank:                    1
##########               Setnum:                  108
##########             Matchnum:                    1
##########                Cloud:                    1
##########        Electrostatic:           -41.749336
##########                 Gist:             0.000000
##########        Van der Waals:           -29.019463
##########  Ligand Polar Desolv:            14.103022
########## Ligand Apolar Desolv:            -4.319109
##########      Internal Energy:             0.000000
##########      Receptor Energy:             0.000000
########## Receptor Desolvation:             0.000000
########## Receptor Hydrophobic:             0.000000
##########         Total Energy:           -60.984886
##########        Ligand Charge:             1.000000
##########            Arbitrary:    +999.9990
##########        Ligand Energy:             0.000000

@<TRIPOS>MOLECULE
 ZINC000187712003      none
   42    43     0     0     0



@<TRIPOS>ATOM
      1 C1        -23.0389    18.9828   -20.8370 C.3        1  LIG1  -0.1300
      2 S1        -21.7840    18.3686   -19.6801 S.3        1  LIG1  -0.2100
      3 C2        -21.0793    16.9471   -20.5595 C.3        1  LIG1  -0.1400
      4 C3        -19.9864    16.3070   -19.7012 C.3        1  LIG1   0.1000
      5 H1        -19.5630    15.4529   -20.2296 H          1  LIG1   0.1300
      6 O1        -20.5485    15.8697   -18.4623 O.3        1  LIG1  -0.5400
      7 C4        -18.8858    17.3342   -19.4274 C.3        1  LIG1  -0.0400
      8 N1        -17.8365    16.7196   -18.6032 N.4        1  LIG1  -0.3800
      9 H2        -18.2610    16.1311   -17.9022 H          1  LIG1   0.4300
     10 C5        -16.9565    15.9089   -19.4556 C.3        1  LIG1  -0.0500
     11 C6        -17.0491    17.7725   -17.9478 C.3        1  LIG1   0.0900
     12 C7        -16.3249    17.1925   -16.7604 C.2        1  LIG1  -0.3100
     13 C8        -16.3737    15.9041   -16.3497 C.2        1  LIG1   0.1000
     14 N2        -15.5884    15.7913   -15.2545 N.pl3      1  LIG1  -0.2900
     15 C9        -15.3619    14.6198   -14.5187 C.ar       1  LIG1   0.1300
     16 C10       -14.5323    14.6470   -13.4058 C.ar       1  LIG1  -0.1300
     17 C11       -14.3109    13.4911   -12.6829 C.ar       1  LIG1  -0.0900
     18 C12       -14.9143    12.3076   -13.0668 C.ar       1  LIG1  -0.1100
     19 C13       -15.7410    12.2774   -14.1748 C.ar       1  LIG1  -0.0900
     20 C14       -15.9711    13.4314   -14.8982 C.ar       1  LIG1  -0.1100
     21 N3        -15.0408    17.0525   -14.9860 N.2        1  LIG1  -0.2600
     22 C15       -15.4783    17.8899   -15.8917 C.2        1  LIG1   0.0700
     23 H3        -23.5359    19.8520   -20.4063 H          1  LIG1   0.0800
     24 H4        -22.5609    19.2654   -21.7752 H          1  LIG1   0.1100
     25 H5        -23.7739    18.2002   -21.0252 H          1  LIG1   0.0800
     26 H6        -21.8632    16.2154   -20.7546 H          1  LIG1   0.1000
     27 H7        -20.6503    17.2807   -21.5044 H          1  LIG1   0.0900
     28 H8        -19.9109    15.4530   -17.8665 H          1  LIG1   0.3900
     29 H9        -18.4570    17.6676   -20.3724 H          1  LIG1   0.1400
     30 H10       -19.3093    18.1883   -18.8990 H          1  LIG1   0.1400
     31 H11       -16.1779    15.4529   -18.8442 H          1  LIG1   0.1200
     32 H12       -17.5407    15.1277   -19.9419 H          1  LIG1   0.1200
     33 H13       -16.4981    16.5445   -20.2131 H          1  LIG1   0.1200
     34 H14       -16.3239    18.1767   -18.6540 H          1  LIG1   0.1400
     35 H15       -17.7143    18.5690   -17.6142 H          1  LIG1   0.1300
     36 H16       -16.9388    15.1088   -16.8129 H          1  LIG1   0.1900
     37 H17       -14.0602    15.5709   -13.1059 H          1  LIG1   0.1300
     38 H18       -13.6657    13.5116   -11.8170 H          1  LIG1   0.1400
     39 H19       -14.7391    11.4049   -12.5004 H          1  LIG1   0.1400
     40 H20       -16.2108    11.3516   -14.4723 H          1  LIG1   0.1400
     41 H21       -16.6172    13.4073   -15.7632 H          1  LIG1   0.1400
     42 H22       -15.2330    18.9398   -15.9540 H          1  LIG1   0.2000
@<TRIPOS>BOND
     1    1    2 1
     2    1   23 1
     3    1   24 1
     4    1   25 1
     5    2    3 1
     6    3    4 1
     7    3   26 1
     8    3   27 1
     9    4    5 1
    10    4    6 1
    11    4    7 1
    12    6   28 1
    13    7    8 1
    14    7   29 1
    15    7   30 1
    16    8    9 1
    17    8   10 1
    18    8   11 1
    19   10   31 1
    20   10   32 1
    21   10   33 1
    22   11   12 1
    23   11   34 1
    24   11   35 1
    25   12   22 1
    26   12   13 2
    27   13   14 1
    28   13   36 1
    29   14   15 1
    30   14   21 1
    31   15   20 ar
    32   15   16 ar
    33   16   17 ar
    34   16   37 1
    35   17   18 ar
    36   17   38 1
    37   18   19 ar
    38   18   39 1
    39   19   20 ar
    40   19   40 1
    41   20   41 1
    42   21   22 2
    43   22   42 1
##########                 Name:     ZINC000553693230
##########          Protonation:                 none
##########               SMILES:   O=C(NC1=CC(Cl)=C(O)C=C1F)[C@]1(O)CC[N@@H+](CC2=CC=CC=C2)C1
##########            Long Name:   NO_LONG_NAME
##########          FlexRecCode: 1
##########               Number:                10020
##########   Ligand Source File: /nfs/db/export/3D/FF/ADMO/FFADMO.xblq.db2.gz
##########                 Rank:                    1
##########               Setnum:                  165
##########             Matchnum:                    1
##########                Cloud:                    1
##########        Electrostatic:           -33.891727
##########                 Gist:             0.000000
##########        Van der Waals:           -36.664959
##########  Ligand Polar Desolv:            13.045921
########## Ligand Apolar Desolv:            -2.763951
##########      Internal Energy:             0.000000
##########      Receptor Energy:             0.000000
########## Receptor Desolvation:             0.000000
########## Receptor Hydrophobic:             0.000000
##########         Total Energy:           -60.274715
##########        Ligand Charge:             1.000000
##########            Arbitrary:    +999.9990
##########        Ligand Energy:             0.000000

@<TRIPOS>MOLECULE
 ZINC000553693230      none
   44    46     0     0     0



@<TRIPOS>ATOM
      1 O1        -16.7735    16.0604   -15.7341 O.2        1  LIG1  -0.5000
      2 C1        -15.9273    16.5168   -16.4736 C.2        1  LIG1   0.5000
      3 N1        -14.6216    16.3838   -16.1670 N.am       1  LIG1  -0.6500
      4 C2        -14.2416    15.7227   -14.9902 C.ar       1  LIG1   0.1000
      5 C3        -14.5973    14.3959   -14.7935 C.ar       1  LIG1  -0.0700
      6 C4        -14.2224    13.7447   -13.6333 C.ar       1  LIG1  -0.0600
      7 Cl1       -14.6671    12.0846   -13.3879 Cl         1  LIG1  -0.0300
      8 C5        -13.4901    14.4162   -12.6652 C.ar       1  LIG1   0.1500
      9 O2        -13.1223    13.7754   -11.5236 O.3        1  LIG1  -0.4800
     10 C6        -13.1337    15.7432   -12.8600 C.ar       1  LIG1  -0.1500
     11 C7        -13.5033    16.3946   -14.0222 C.ar       1  LIG1   0.1100
     12 F1        -13.1556    17.6860   -14.2130 F          1  LIG1  -0.1200
     13 C8        -16.3357    17.2272   -17.7384 C.3        1  LIG1   0.1100
     14 O3        -15.1827    17.7206   -18.4236 O.3        1  LIG1  -0.5300
     15 C9        -17.3060    18.3861   -17.4135 C.3        1  LIG1  -0.1700
     16 C10       -18.3298    18.3166   -18.5744 C.3        1  LIG1   0.0000
     17 N2        -18.4865    16.8574   -18.8024 N.4        1  LIG1  -0.3900
     18 H1        -19.1127    16.4634   -18.1162 H          1  LIG1   0.4300
     19 C11       -18.9970    16.6082   -20.1571 C.3        1  LIG1   0.0500
     20 C12       -20.4870    16.8314   -20.1814 C.ar       1  LIG1  -0.1600
     21 C13       -21.3474    15.7843   -19.9088 C.ar       1  LIG1  -0.0900
     22 C14       -22.7143    15.9891   -19.9310 C.ar       1  LIG1  -0.1100
     23 C15       -23.2209    17.2410   -20.2257 C.ar       1  LIG1  -0.0800
     24 C16       -22.3606    18.2884   -20.4974 C.ar       1  LIG1  -0.1100
     25 C17       -20.9936    18.0846   -20.4709 C.ar       1  LIG1  -0.1000
     26 C18       -17.1342    16.2779   -18.6507 C.3        1  LIG1   0.0100
     27 H2        -13.9448    16.7454   -16.7603 H          1  LIG1   0.4200
     28 H3        -15.1672    13.8723   -15.5467 H          1  LIG1   0.1600
     29 H4        -13.4158    12.8550   -11.4778 H          1  LIG1   0.4100
     30 H5        -12.5637    16.2656   -12.1060 H          1  LIG1   0.1600
     31 H6        -14.5543    17.0326   -18.6818 H          1  LIG1   0.4000
     32 H7        -17.7979    18.2201   -16.4549 H          1  LIG1   0.1100
     33 H8        -16.7813    19.3415   -17.4185 H          1  LIG1   0.1300
     34 H9        -19.2785    18.7638   -18.2778 H          1  LIG1   0.1400
     35 H10       -17.9348    18.8049   -19.4653 H          1  LIG1   0.1400
     36 H11       -18.5158    17.2906   -20.8578 H          1  LIG1   0.1400
     37 H12       -18.7789    15.5795   -20.4440 H          1  LIG1   0.1400
     38 H13       -20.9516    14.8062   -19.6786 H          1  LIG1   0.1300
     39 H14       -23.3864    15.1708   -19.7187 H          1  LIG1   0.1400
     40 H15       -24.2889    17.4008   -20.2437 H          1  LIG1   0.1400
     41 H16       -22.7565    19.2665   -20.7278 H          1  LIG1   0.1400
     42 H17       -20.3215    18.9029   -20.6832 H          1  LIG1   0.1300
     43 H18       -16.6503    16.2047   -19.6247 H          1  LIG1   0.1600
     44 H19       -17.2021    15.2916   -18.1918 H          1  LIG1   0.1600
@<TRIPOS>BOND
     1    1    2 2
     2    2    3 am
     3    2   13 1
     4    3    4 1
     5    3   27 1
     6    4   11 ar
     7    4    5 ar
     8    5    6 ar
     9    5   28 1
    10    6    7 1
    11    6    8 ar
    12    8    9 1
    13    8   10 ar
    14    9   29 1
    15   10   11 ar
    16   10   30 1
    17   11   12 1
    18   13   26 1
    19   13   14 1
    20   13   15 1
    21   14   31 1
    22   15   16 1
    23   15   32 1
    24   15   33 1
    25   16   17 1
    26   16   34 1
    27   16   35 1
    28   17   18 1
    29   17   19 1
    30   17   26 1
    31   19   20 1
    32   19   36 1
    33   19   37 1
    34   20   25 ar
    35   20   21 ar
    36   21   22 ar
    37   21   38 1
    38   22   23 ar
    39   22   39 1
    40   23   24 ar
    41   23   40 1
    42   24   25 ar
    43   24   41 1
    44   25   42 1
    45   26   43 1
    46   26   44 1
##########                 Name:     ZINC000286608648
##########          Protonation:                 none
##########               SMILES:   CC1=CC(NC(=O)[C@@H](C)[N@@H+](C)CCC(N)=O)=CC=C1Br
##########            Long Name:   NO_LONG_NAME
##########          FlexRecCode: 1
##########               Number:                11298
##########   Ligand Source File: /nfs/db/export/3D/ED/ADMO/EDADMO.xaeb.db2.gz
##########                 Rank:                    1
##########               Setnum:                   31
##########             Matchnum:                    1
##########                Cloud:                    1
##########        Electrostatic:           -45.494091
##########                 Gist:             0.000000
##########        Van der Waals:           -30.281595
##########  Ligand Polar Desolv:            17.959190
########## Ligand Apolar Desolv:            -2.452328
##########      Internal Energy:             0.000000
##########      Receptor Energy:             0.000000
########## Receptor Desolvation:             0.000000
########## Receptor Hydrophobic:             0.000000
##########         Total Energy:           -60.268826
##########        Ligand Charge:             1.000000
##########            Arbitrary:    +999.9990
##########        Ligand Energy:             0.000000

@<TRIPOS>MOLECULE
 ZINC000286608648      none
   41    41     0     0     0



@<TRIPOS>ATOM
      1 C1        -14.5650    12.6163   -12.6567 C.3        1  LIG1  -0.1300
      2 C2        -14.4093    13.8170   -13.5539 C.ar       1  LIG1  -0.0300
      3 C3        -15.2178    13.9578   -14.6644 C.ar       1  LIG1  -0.1100
      4 C4        -15.0738    15.0648   -15.4909 C.ar       1  LIG1   0.1400
      5 N1        -15.8922    15.2102   -16.6168 N.am       1  LIG1  -0.6400
      6 C5        -16.2137    16.4411   -17.0619 C.2        1  LIG1   0.5000
      7 O1        -15.7939    17.4227   -16.4864 O.2        1  LIG1  -0.5000
      8 C6        -17.0951    16.5975   -18.2742 C.3        1  LIG1   0.0100
      9 H1        -16.8366    17.5197   -18.7946 H          1  LIG1   0.1600
     10 C7        -16.8876    15.4071   -19.2126 C.3        1  LIG1  -0.1800
     11 N2        -18.5016    16.6503   -17.8536 N.4        1  LIG1  -0.3700
     12 H2        -18.8353    15.7145   -17.6776 H          1  LIG1   0.4300
     13 C8        -18.6162    17.4498   -16.6266 C.3        1  LIG1  -0.0600
     14 C9        -19.3076    17.2660   -18.9163 C.3        1  LIG1   0.0000
     15 C10       -20.7775    16.8858   -18.7266 C.3        1  LIG1  -0.1700
     16 C11       -21.6044    17.5173   -19.8167 C.2        1  LIG1   0.5300
     17 N3        -22.9370    17.3193   -19.8521 N.am       1  LIG1  -0.8400
     18 O2        -21.0706    18.2039   -20.6621 O.2        1  LIG1  -0.5400
     19 C12       -14.1166    16.0270   -15.1977 C.ar       1  LIG1  -0.1300
     20 C13       -13.3105    15.8810   -14.0856 C.ar       1  LIG1  -0.0600
     21 C14       -13.4600    14.7804   -13.2609 C.ar       1  LIG1  -0.1000
     22 Br1       -12.3546    14.5841   -11.7393 Br         1  LIG1  -0.0300
     23 H3        -15.3551    11.9731   -13.0443 H          1  LIG1   0.0800
     24 H4        -13.6271    12.0617   -12.6258 H          1  LIG1   0.0700
     25 H5        -14.8255    12.9457   -11.6507 H          1  LIG1   0.0800
     26 H6        -15.9612    13.2077   -14.8903 H          1  LIG1   0.1400
     27 H7        -16.2280    14.4250   -17.0770 H          1  LIG1   0.4200
     28 H8        -17.5250    15.5203   -20.0895 H          1  LIG1   0.1100
     29 H9        -15.8439    15.3679   -19.5246 H          1  LIG1   0.0900
     30 H10       -17.1461    14.4849   -18.6922 H          1  LIG1   0.1000
     31 H11       -19.6598    17.4890   -16.3146 H          1  LIG1   0.1300
     32 H12       -18.0180    16.9930   -15.8382 H          1  LIG1   0.1300
     33 H13       -18.2557    18.4608   -16.8167 H          1  LIG1   0.1300
     34 H14       -19.2037    18.3499   -18.8694 H          1  LIG1   0.1400
     35 H15       -18.9625    16.9094   -19.8868 H          1  LIG1   0.1500
     36 H16       -20.8814    15.8018   -18.7735 H          1  LIG1   0.1200
     37 H17       -21.1226    17.2422   -17.7560 H          1  LIG1   0.1200
     38 H18       -23.3639    16.7701   -19.1760 H          1  LIG1   0.4100
     39 H19       -23.4692    17.7257   -20.5539 H          1  LIG1   0.4200
     40 H20       -14.0022    16.8884   -15.8390 H          1  LIG1   0.1400
     41 H21       -12.5656    16.6290   -13.8573 H          1  LIG1   0.1400
@<TRIPOS>BOND
     1    1    2 1
     2    1   23 1
     3    1   24 1
     4    1   25 1
     5    2   21 ar
     6    2    3 ar
     7    3    4 ar
     8    3   26 1
     9    4    5 1
    10    4   19 ar
    11    5    6 am
    12    5   27 1
    13    6    7 2
    14    6    8 1
    15    8    9 1
    16    8   10 1
    17    8   11 1
    18   10   28 1
    19   10   29 1
    20   10   30 1
    21   11   12 1
    22   11   13 1
    23   11   14 1
    24   13   31 1
    25   13   32 1
    26   13   33 1
    27   14   15 1
    28   14   34 1
    29   14   35 1
    30   15   16 1
    31   15   36 1
    32   15   37 1
    33   16   17 am
    34   16   18 2
    35   17   38 1
    36   17   39 1
    37   19   20 ar
    38   19   40 1
    39   20   21 ar
    40   20   41 1
    41   21   22 1
##########                 Name:     ZINC000302900408
##########          Protonation:                 none
##########               SMILES:   CN1N=CC2=C(N)N=C(NCCC3=CSC(C4=CC=CC=C4)=N3)N=C21
##########            Long Name:   NO_LONG_NAME
##########          FlexRecCode: 1
##########               Number:                16536
##########   Ligand Source File: /nfs/db/export/3D/FF/ADRO/FFADRO.xaia.db2.gz
##########                 Rank:                    1
##########               Setnum:                   45
##########             Matchnum:                    1
##########                Cloud:                    1
##########        Electrostatic:           -40.687294
##########                 Gist:             0.000000
##########        Van der Waals:           -35.138687
##########  Ligand Polar Desolv:            20.505253
########## Ligand Apolar Desolv:            -4.961629
##########      Internal Energy:             0.000000
##########      Receptor Energy:             0.000000
########## Receptor Desolvation:             0.000000
########## Receptor Hydrophobic:             0.000000
##########         Total Energy:           -60.282356
##########        Ligand Charge:             1.000000
##########            Arbitrary:    +999.9990
##########        Ligand Energy:             0.000000

@<TRIPOS>MOLECULE
 ZINC000302900408      none
   43    46     0     0     0



@<TRIPOS>ATOM
      1 C1        -12.9670    13.5980   -12.3248 C.3        1  LIG1   0.0900
      2 N1        -14.0847    12.9627   -13.0274 N.pl3      1  LIG1  -0.3500
      3 N2        -14.6827    11.7435   -12.6851 N.2        1  LIG1  -0.2200
      4 C2        -15.6459    11.4772   -13.5203 C.2        1  LIG1   0.1400
      5 C3        -15.7238    12.5259   -14.4624 C.ar       1  LIG1  -0.3400
      6 C4        -16.5421    12.7951   -15.5773 C.ar       1  LIG1   0.5900
      7 N3        -17.5401    11.9161   -15.9492 N.pl3      1  LIG1  -0.7900
      8 N4        -16.3323    13.9129   -16.2618 N.ar       1  LIG1  -0.5900
      9 H1        -16.8877    14.1118   -17.0319 H          1  LIG1   0.4400
     10 C5        -15.3755    14.7637   -15.9103 C.ar       1  LIG1   0.6700
     11 N5        -15.1998    15.9150   -16.6580 N.pl3      1  LIG1  -0.6700
     12 C6        -16.2844    16.4068   -17.5111 C.3        1  LIG1   0.1000
     13 C7        -15.8340    17.6839   -18.2232 C.3        1  LIG1  -0.0500
     14 C8        -16.9496    18.1899   -19.1008 C.2        1  LIG1   0.0600
     15 C9        -16.8231    19.2941   -19.8445 C.2        1  LIG1  -0.2400
     16 S1        -18.3330    19.5462   -20.7181 S.3        1  LIG1   0.1300
     17 C10       -19.0011    18.0970   -19.9714 C.2        1  LIG1   0.1300
     18 C11       -20.3594    17.5606   -20.2031 C.ar       1  LIG1  -0.0400
     19 C12       -21.3591    18.3845   -20.7217 C.ar       1  LIG1  -0.0700
     20 C13       -22.6243    17.8776   -20.9358 C.ar       1  LIG1  -0.1200
     21 C14       -22.9030    16.5558   -20.6372 C.ar       1  LIG1  -0.0900
     22 C15       -21.9162    15.7337   -20.1228 C.ar       1  LIG1  -0.1100
     23 C16       -20.6454    16.2267   -19.9093 C.ar       1  LIG1  -0.0900
     24 N6        -18.1045    17.5710   -19.1869 N.2        1  LIG1  -0.4700
     25 N7        -14.5844    14.5522   -14.8722 N.ar       1  LIG1  -0.5500
     26 C17       -14.7252    13.4596   -14.1235 C.ar       1  LIG1   0.4300
     27 H2        -12.6609    12.9711   -11.4873 H          1  LIG1   0.0900
     28 H3        -12.1294    13.7216   -13.0114 H          1  LIG1   0.1100
     29 H4        -13.2791    14.5740   -11.9531 H          1  LIG1   0.1000
     30 H5        -16.2780    10.6018   -13.4967 H          1  LIG1   0.2100
     31 H6        -17.6841    11.1025   -15.4410 H          1  LIG1   0.4500
     32 H7        -18.0972    12.1123   -16.7187 H          1  LIG1   0.4300
     33 H8        -14.3585    16.3962   -16.6171 H          1  LIG1   0.4400
     34 H9        -16.5369    15.6479   -18.2516 H          1  LIG1   0.0900
     35 H10       -17.1597    16.6219   -16.8982 H          1  LIG1   0.0800
     36 H11       -15.5815    18.4430   -17.4827 H          1  LIG1   0.1000
     37 H12       -14.9587    17.4689   -18.8360 H          1  LIG1   0.1000
     38 H13       -15.9468    19.9229   -19.9002 H          1  LIG1   0.1800
     39 H14       -21.1430    19.4167   -20.9546 H          1  LIG1   0.1300
     40 H15       -23.3990    18.5143   -21.3371 H          1  LIG1   0.1300
     41 H16       -23.8952    16.1641   -20.8059 H          1  LIG1   0.1300
     42 H17       -22.1401    14.7028   -19.8916 H          1  LIG1   0.1300
     43 H18       -19.8760    15.5839   -19.5080 H          1  LIG1   0.1300
@<TRIPOS>BOND
     1    1    2 1
     2    1   27 1
     3    1   28 1
     4    1   29 1
     5    2   26 1
     6    2    3 1
     7    3    4 2
     8    4    5 1
     9    4   30 1
    10    5   26 ar
    11    5    6 ar
    12    6    7 1
    13    6    8 ar
    14    7   31 1
    15    7   32 1
    16    8    9 1
    17    8   10 ar
    18   10   11 1
    19   10   25 ar
    20   11   12 1
    21   11   33 1
    22   12   13 1
    23   12   34 1
    24   12   35 1
    25   13   14 1
    26   13   36 1
    27   13   37 1
    28   14   24 1
    29   14   15 2
    30   15   16 1
    31   15   38 1
    32   16   17 1
    33   17   18 1
    34   17   24 2
    35   18   23 ar
    36   18   19 ar
    37   19   20 ar
    38   19   39 1
    39   20   21 ar
    40   20   40 1
    41   21   22 ar
    42   21   41 1
    43   22   23 ar
    44   22   42 1
    45   23   43 1
    46   25   26 ar
##########                 Name:     ZINC000245382701
##########          Protonation:                 none
##########               SMILES:   C[C@@H](C(=O)NC1=CC=C([N+](=O)[O-])C=C1Cl)[N@@H+](C)C[C@H]1CCCO1
##########            Long Name:   NO_LONG_NAME
##########          FlexRecCode: 1
##########               Number:                 7116
##########   Ligand Source File: /nfs/db/export/3D/EF/BDMO/EFBDMO.xal.db2.gz
##########                 Rank:                    1
##########               Setnum:                   19
##########             Matchnum:                    1
##########                Cloud:                    1
##########        Electrostatic:           -37.738350
##########                 Gist:             0.000000
##########        Van der Waals:           -33.911999
##########  Ligand Polar Desolv:            15.672928
########## Ligand Apolar Desolv:            -4.786512
##########      Internal Energy:             0.000000
##########      Receptor Energy:             0.000000
########## Receptor Desolvation:             0.000000
########## Receptor Hydrophobic:             0.000000
##########         Total Energy:           -60.763931
##########        Ligand Charge:             1.000000
##########            Arbitrary:    +999.9990
##########        Ligand Energy:             0.000000

@<TRIPOS>MOLECULE
 ZINC000245382701      none
   44    45     0     0     0



@<TRIPOS>ATOM
      1 C1        -16.2827    16.6803   -19.7955 C.3        1  LIG1  -0.1800
      2 C2        -17.0779    15.8449   -18.7901 C.3        1  LIG1   0.0100
      3 H1        -17.3516    14.8929   -19.2449 H          1  LIG1   0.1700
      4 C3        -16.2343    15.5935   -17.5671 C.2        1  LIG1   0.5100
      5 O1        -15.3988    16.4054   -17.2292 O.2        1  LIG1  -0.4900
      6 N1        -16.4080    14.4665   -16.8487 N.am       1  LIG1  -0.6500
      7 C4        -15.6242    14.2329   -15.7126 C.ar       1  LIG1   0.1900
      8 C5        -15.1575    15.3004   -14.9580 C.ar       1  LIG1  -0.1100
      9 C6        -14.3846    15.0668   -13.8370 C.ar       1  LIG1  -0.0300
     10 C7        -14.0755    13.7714   -13.4658 C.ar       1  LIG1  -0.0300
     11 N2        -13.2475    13.5254   -12.2638 N.pl3      1  LIG1   0.0200
     12 O2        -12.8393    14.4635   -11.6029 O.2        1  LIG1  -0.1400
     13 O3        -12.9744    12.3846   -11.9354 O.2        1  LIG1  -0.1400
     14 C8        -14.5384    12.7050   -14.2148 C.ar       1  LIG1  -0.0300
     15 C9        -15.3165    12.9314   -15.3343 C.ar       1  LIG1  -0.0600
     16 Cl1       -15.8974    11.5926   -16.2743 Cl         1  LIG1  -0.0200
     17 N3        -18.2952    16.5712   -18.4046 N.4        1  LIG1  -0.3700
     18 H2        -18.8198    16.0204   -17.7416 H          1  LIG1   0.4400
     19 C10       -17.9266    17.8545   -17.7921 C.3        1  LIG1  -0.0600
     20 C11       -19.1177    16.8162   -19.5969 C.3        1  LIG1  -0.0100
     21 C12       -20.5463    17.1007   -19.1757 C.3        1  LIG1   0.0500
     22 H3        -20.6229    18.1633   -18.8414 H          1  LIG1   0.1000
     23 C13       -21.5663    16.8234   -20.2665 C.3        1  LIG1  -0.1500
     24 C14       -22.8066    16.5466   -19.4546 C.3        1  LIG1  -0.1600
     25 C15       -22.2443    15.7828   -18.2747 C.3        1  LIG1   0.0500
     26 O4        -20.9056    16.2579   -18.0679 O.3        1  LIG1  -0.3800
     27 H4        -16.0089    17.6324   -19.3409 H          1  LIG1   0.1100
     28 H5        -15.3795    16.1414   -20.0818 H          1  LIG1   0.0900
     29 H6        -16.8931    16.8622   -20.6801 H          1  LIG1   0.1100
     30 H7        -17.0760    13.8173   -17.1188 H          1  LIG1   0.4300
     31 H8        -15.3981    16.3128   -15.2473 H          1  LIG1   0.1700
     32 H9        -14.0211    15.8973   -13.2499 H          1  LIG1   0.1700
     33 H10       -14.2952    11.6942   -13.9223 H          1  LIG1   0.1800
     34 H11       -18.8298    18.3934   -17.5059 H          1  LIG1   0.1300
     35 H12       -17.3163    17.6729   -16.9074 H          1  LIG1   0.1300
     36 H13       -17.3600    18.4496   -18.5084 H          1  LIG1   0.1300
     37 H14       -18.7219    17.6734   -20.1415 H          1  LIG1   0.1400
     38 H15       -19.0969    15.9362   -20.2397 H          1  LIG1   0.1400
     39 H16       -21.6950    17.6983   -20.9228 H          1  LIG1   0.1000
     40 H17       -21.2732    15.9524   -20.8735 H          1  LIG1   0.0900
     41 H18       -23.2891    17.4763   -19.1264 H          1  LIG1   0.0900
     42 H19       -23.5251    15.9328   -20.0131 H          1  LIG1   0.1000
     43 H20       -22.8364    15.9705   -17.3783 H          1  LIG1   0.0800
     44 H21       -22.2217    14.7129   -18.4852 H          1  LIG1   0.0800
@<TRIPOS>BOND
     1    1    2 1
     2    1   27 1
     3    1   28 1
     4    1   29 1
     5    2    3 1
     6    2    4 1
     7    2   17 1
     8    4    5 2
     9    4    6 am
    10    6    7 1
    11    6   30 1
    12    7   15 ar
    13    7    8 ar
    14    8    9 ar
    15    8   31 1
    16    9   10 ar
    17    9   32 1
    18   10   11 1
    19   10   14 ar
    20   11   12 2
    21   11   13 2
    22   14   15 ar
    23   14   33 1
    24   15   16 1
    25   17   18 1
    26   17   19 1
    27   17   20 1
    28   19   34 1
    29   19   35 1
    30   19   36 1
    31   20   21 1
    32   20   37 1
    33   20   38 1
    34   21   22 1
    35   21   26 1
    36   21   23 1
    37   23   24 1
    38   23   39 1
    39   23   40 1
    40   24   25 1
    41   24   41 1
    42   24   42 1
    43   25   26 1
    44   25   43 1
    45   25   44 1
##########                 Name:     ZINC000676832721
##########          Protonation:                 none
##########               SMILES:   CCC1=CC=C([C@@H](CNC(=O)N2CCC3=CNN=C3C2)[NH+](C)C)C=C1
##########            Long Name:   NO_LONG_NAME
##########          FlexRecCode: 1
##########               Number:                 9115
##########   Ligand Source File: /nfs/db/export/3D/EE/ADRO/EEADRO.xbhe.db2.gz
##########                 Rank:                    1
##########               Setnum:                   36
##########             Matchnum:                    1
##########                Cloud:                    1
##########        Electrostatic:           -42.212456
##########                 Gist:             0.000000
##########        Van der Waals:           -30.825598
##########  Ligand Polar Desolv:            16.676010
########## Ligand Apolar Desolv:            -4.677999
##########      Internal Energy:             0.000000
##########      Receptor Energy:             0.000000
########## Receptor Desolvation:             0.000000
########## Receptor Hydrophobic:             0.000000
##########         Total Energy:           -61.040043
##########        Ligand Charge:             1.000000
##########            Arbitrary:    +999.9990
##########        Ligand Energy:             0.000000

@<TRIPOS>MOLECULE
 ZINC000676832721      none
   53    55     0     0     0



@<TRIPOS>ATOM
      1 C1        -12.1112    14.3986   -13.4508 C.3        1  LIG1  -0.1500
      2 C2        -13.5088    14.8183   -12.9911 C.3        1  LIG1  -0.1000
      3 C3        -14.2956    15.3237   -14.1730 C.ar       1  LIG1  -0.0500
      4 C4        -15.0575    14.4467   -14.9222 C.ar       1  LIG1  -0.1000
      5 C5        -15.7792    14.9102   -16.0062 C.ar       1  LIG1  -0.0900
      6 C6        -15.7393    16.2510   -16.3408 C.ar       1  LIG1  -0.1500
      7 C7        -16.5257    16.7562   -17.5229 C.3        1  LIG1   0.0700
      8 H1        -16.3716    17.8299   -17.6298 H          1  LIG1   0.1500
      9 C8        -16.0527    16.0443   -18.7918 C.3        1  LIG1   0.1200
     10 N1        -16.4397    16.8304   -19.9660 N.am       1  LIG1  -0.7400
     11 C9        -15.9867    18.0913   -20.1120 C.2        1  LIG1   0.7200
     12 O1        -15.2568    18.5765   -19.2692 O.2        1  LIG1  -0.5700
     13 N2        -16.3427    18.8145   -21.1923 N.am       1  LIG1  -0.6200
     14 C10       -16.6335    18.1550   -22.4727 C.3        1  LIG1   0.1300
     15 C11       -18.1173    18.3390   -22.8159 C.3        1  LIG1  -0.0600
     16 C12       -18.4915    19.7811   -22.5810 C.2        1  LIG1  -0.2300
     17 C13       -19.5639    20.4479   -23.0491 C.2        1  LIG1   0.0700
     18 N3        -19.4944    21.7152   -22.5836 N.pl3      1  LIG1  -0.4700
     19 N4        -18.3345    21.8267   -21.8016 N.2        1  LIG1  -0.2700
     20 C14       -17.7355    20.6726   -21.8015 C.2        1  LIG1   0.0500
     21 C15       -16.4538    20.2822   -21.1108 C.3        1  LIG1   0.2000
     22 N5        -17.9541    16.4850   -17.3128 N.4        1  LIG1  -0.3800
     23 H2        -18.0967    15.4911   -17.2139 H          1  LIG1   0.4300
     24 C16       -18.4081    17.1685   -16.0943 C.3        1  LIG1  -0.0500
     25 C17       -18.7207    16.9776   -18.4651 C.3        1  LIG1  -0.0600
     26 C18       -14.9784    17.1281   -15.5908 C.ar       1  LIG1  -0.1100
     27 C19       -14.2598    16.6652   -14.5045 C.ar       1  LIG1  -0.1000
     28 H3        -11.5421    14.0330   -12.5960 H          1  LIG1   0.0600
     29 H4        -12.1960    13.6075   -14.1958 H          1  LIG1   0.0600
     30 H5        -11.5996    15.2560   -13.8879 H          1  LIG1   0.0700
     31 H6        -14.0203    13.9607   -12.5541 H          1  LIG1   0.0800
     32 H7        -13.4241    15.6093   -12.2460 H          1  LIG1   0.0800
     33 H8        -15.0886    13.3993   -14.6606 H          1  LIG1   0.1400
     34 H9        -16.3739    14.2249   -16.5919 H          1  LIG1   0.1300
     35 H10       -14.9680    15.9391   -18.7666 H          1  LIG1   0.0900
     36 H11       -16.5123    15.0576   -18.8477 H          1  LIG1   0.0900
     37 H12       -17.0219    16.4433   -20.6384 H          1  LIG1   0.4000
     38 H13       -16.0212    18.5989   -23.2575 H          1  LIG1   0.0800
     39 H14       -16.4081    17.0915   -22.3933 H          1  LIG1   0.1000
     40 H15       -18.2851    18.0833   -23.8620 H          1  LIG1   0.0900
     41 H16       -18.7228    17.6952   -22.1778 H          1  LIG1   0.0700
     42 H17       -20.3396    20.0432   -23.6823 H          1  LIG1   0.1800
     43 H18       -20.1336    22.4232   -22.7595 H          1  LIG1   0.4500
     44 H19       -16.4838    20.5951   -20.0672 H          1  LIG1   0.0900
     45 H20       -15.6047    20.7445   -21.6143 H          1  LIG1   0.1000
     46 H21       -19.4679    16.9674   -15.9382 H          1  LIG1   0.1200
     47 H22       -17.8392    16.8030   -15.2392 H          1  LIG1   0.1300
     48 H23       -18.2539    18.2422   -16.2010 H          1  LIG1   0.1200
     49 H24       -19.7805    16.7764   -18.3090 H          1  LIG1   0.1300
     50 H25       -18.5665    18.0513   -18.5717 H          1  LIG1   0.1300
     51 H26       -18.3837    16.4707   -19.3693 H          1  LIG1   0.1300
     52 H27       -14.9476    18.1757   -15.8520 H          1  LIG1   0.1200
     53 H28       -13.6654    17.3506   -13.9185 H          1  LIG1   0.1400
@<TRIPOS>BOND
     1    1    2 1
     2    1   28 1
     3    1   29 1
     4    1   30 1
     5    2    3 1
     6    2   31 1
     7    2   32 1
     8    3   27 ar
     9    3    4 ar
    10    4    5 ar
    11    4   33 1
    12    5    6 ar
    13    5   34 1
    14    6    7 1
    15    6   26 ar
    16    7    8 1
    17    7    9 1
    18    7   22 1
    19    9   10 1
    20    9   35 1
    21    9   36 1
    22   10   11 am
    23   10   37 1
    24   11   12 2
    25   11   13 am
    26   13   21 1
    27   13   14 1
    28   14   15 1
    29   14   38 1
    30   14   39 1
    31   15   16 1
    32   15   40 1
    33   15   41 1
    34   16   20 1
    35   16   17 2
    36   17   18 1
    37   17   42 1
    38   18   19 1
    39   18   43 1
    40   19   20 2
    41   20   21 1
    42   21   44 1
    43   21   45 1
    44   22   23 1
    45   22   24 1
    46   22   25 1
    47   24   46 1
    48   24   47 1
    49   24   48 1
    50   25   49 1
    51   25   50 1
    52   25   51 1
    53   26   27 ar
    54   26   52 1
    55   27   53 1
##########                 Name:     ZINC000063218762
##########          Protonation:                 none
##########               SMILES:   Cc1cc(C)c(C[NH2+][C@H](CO)Cc2ccccc2)cc1C
##########            Long Name:   NO_LONG_NAME
##########          FlexRecCode: 1
##########               Number:                 4209
##########   Ligand Source File: /nfs/db/export/3D/CG/ADRO/CGADRO.xcak.db2.gz
##########                 Rank:                    1
##########               Setnum:                   44
##########             Matchnum:                    1
##########                Cloud:                    1
##########        Electrostatic:           -39.093578
##########                 Gist:             0.000000
##########        Van der Waals:           -28.187218
##########  Ligand Polar Desolv:            11.220980
########## Ligand Apolar Desolv:            -4.642117
##########      Internal Energy:             0.000000
##########      Receptor Energy:             0.000000
########## Receptor Desolvation:             0.000000
########## Receptor Hydrophobic:             0.000000
##########         Total Energy:           -60.701927
##########        Ligand Charge:             1.000000
##########            Arbitrary:    +999.9990
##########        Ligand Energy:             0.000000

@<TRIPOS>MOLECULE
 ZINC000063218762      none
   47    48     0     0     0



@<TRIPOS>ATOM
      1 C1        -14.0671    12.5710   -12.9023 C.3        1  LIG1  -0.1300
      2 C2        -14.5643    13.6362   -13.8453 C.ar       1  LIG1  -0.0400
      3 C3        -14.0473    14.9161   -13.7765 C.ar       1  LIG1  -0.1100
      4 C4        -14.5034    15.8934   -14.6416 C.ar       1  LIG1  -0.0600
      5 C5        -13.9400    17.2890   -14.5663 C.3        1  LIG1  -0.1400
      6 C6        -15.4759    15.5902   -15.5758 C.ar       1  LIG1  -0.1700
      7 C7        -15.9728    16.6553   -16.5190 C.3        1  LIG1   0.0400
      8 N1        -16.9959    16.0853   -17.4059 N.4        1  LIG1  -0.5100
      9 H1        -16.5958    15.3261   -17.9365 H          1  LIG1   0.4200
     10 H2        -17.7659    15.7400   -16.8528 H          1  LIG1   0.4300
     11 C8        -17.4803    17.1236   -18.3253 C.3        1  LIG1   0.0400
     12 H3        -16.6413    17.7351   -18.6573 H          1  LIG1   0.1500
     13 C9        -18.5015    18.0063   -17.6051 C.3        1  LIG1   0.0500
     14 O1        -19.3394    17.1918   -16.7825 O.3        1  LIG1  -0.5800
     15 C10       -18.1414    16.4636   -19.5371 C.3        1  LIG1  -0.0900
     16 C11       -18.1939    17.4468   -20.6781 C.ar       1  LIG1  -0.1300
     17 C12       -19.2861    18.2819   -20.8209 C.ar       1  LIG1  -0.1100
     18 C13       -19.3343    19.1838   -21.8675 C.ar       1  LIG1  -0.1100
     19 C14       -18.2900    19.2508   -22.7708 C.ar       1  LIG1  -0.1000
     20 C15       -17.1974    18.4163   -22.6273 C.ar       1  LIG1  -0.1100
     21 C16       -17.1474    17.5174   -21.5783 C.ar       1  LIG1  -0.1400
     22 C17       -15.9925    14.3096   -15.6452 C.ar       1  LIG1  -0.0800
     23 C18       -15.5337    13.3317   -14.7829 C.ar       1  LIG1  -0.0800
     24 C19       -16.0968    11.9359   -14.8585 C.3        1  LIG1  -0.1300
     25 H4        -13.3109    12.9949   -12.2415 H          1  LIG1   0.0800
     26 H5        -14.8995    12.1948   -12.3077 H          1  LIG1   0.0800
     27 H6        -13.6311    11.7529   -13.4757 H          1  LIG1   0.0800
     28 H7        -13.2871    15.1529   -13.0468 H          1  LIG1   0.1300
     29 H8        -14.4175    17.9148   -15.3203 H          1  LIG1   0.0800
     30 H9        -14.1293    17.7044   -13.5765 H          1  LIG1   0.0700
     31 H10       -12.8656    17.2574   -14.7477 H          1  LIG1   0.0900
     32 H11       -16.4050    17.4754   -15.9457 H          1  LIG1   0.1400
     33 H12       -15.1411    17.0283   -17.1164 H          1  LIG1   0.1400
     34 H13       -17.9790    18.7338   -16.9839 H          1  LIG1   0.0700
     35 H14       -19.1126    18.5294   -18.3407 H          1  LIG1   0.1000
     36 H15       -19.8361    16.5205   -17.2701 H          1  LIG1   0.4100
     37 H16       -17.5618    15.5904   -19.8364 H          1  LIG1   0.1100
     38 H17       -19.1538    16.1557   -19.2759 H          1  LIG1   0.1200
     39 H18       -20.1019    18.2296   -20.1152 H          1  LIG1   0.1300
     40 H19       -20.1880    19.8357   -21.9796 H          1  LIG1   0.1300
     41 H20       -18.3280    19.9549   -23.5889 H          1  LIG1   0.1300
     42 H21       -16.3817    18.4684   -23.3332 H          1  LIG1   0.1300
     43 H22       -16.2935    16.8655   -21.4661 H          1  LIG1   0.1200
     44 H23       -16.7521    14.0726   -16.3753 H          1  LIG1   0.1300
     45 H24       -16.8428    11.8876   -15.6517 H          1  LIG1   0.0800
     46 H25       -15.2933    11.2310   -15.0721 H          1  LIG1   0.0800
     47 H26       -16.5616    11.6795   -13.9065 H          1  LIG1   0.0700
@<TRIPOS>BOND
     1    1    2 1
     2    1   25 1
     3    1   26 1
     4    1   27 1
     5    2   23 ar
     6    2    3 ar
     7    3    4 ar
     8    3   28 1
     9    4    5 1
    10    4    6 ar
    11    5   29 1
    12    5   30 1
    13    5   31 1
    14    6    7 1
    15    6   22 ar
    16    7    8 1
    17    7   32 1
    18    7   33 1
    19    8    9 1
    20    8   10 1
    21    8   11 1
    22   11   12 1
    23   11   13 1
    24   11   15 1
    25   13   14 1
    26   13   34 1
    27   13   35 1
    28   14   36 1
    29   15   16 1
    30   15   37 1
    31   15   38 1
    32   16   21 ar
    33   16   17 ar
    34   17   18 ar
    35   17   39 1
    36   18   19 ar
    37   18   40 1
    38   19   20 ar
    39   19   41 1
    40   20   21 ar
    41   20   42 1
    42   21   43 1
    43   22   23 ar
    44   22   44 1
    45   23   24 1
    46   24   45 1
    47   24   46 1
    48   24   47 1
##########                 Name:     ZINC000189463724
##########          Protonation:                 none
##########               SMILES:   O=C(CCC1=CC(F)=CC=C1Br)NCC[N@@H+]1CCCOCC1
##########            Long Name:   NO_LONG_NAME
##########          FlexRecCode: 1
##########               Number:                13538
##########   Ligand Source File: /nfs/db/export/3D/FE/ADRO/FEADRO.xbp.db2.gz
##########                 Rank:                    1
##########               Setnum:                  133
##########             Matchnum:                    1
##########                Cloud:                    1
##########        Electrostatic:           -39.799458
##########                 Gist:             0.000000
##########        Van der Waals:           -32.191475
##########  Ligand Polar Desolv:            16.281103
########## Ligand Apolar Desolv:            -4.686604
##########      Internal Energy:             0.000000
##########      Receptor Energy:             0.000000
########## Receptor Desolvation:             0.000000
########## Receptor Hydrophobic:             0.000000
##########         Total Energy:           -60.396439
##########        Ligand Charge:             1.000000
##########            Arbitrary:    +999.9990
##########        Ligand Energy:             0.000000

@<TRIPOS>MOLECULE
 ZINC000189463724      none
   45    46     0     0     0



@<TRIPOS>ATOM
      1 O1        -15.6080    16.8139   -17.3420 O.2        1  LIG1  -0.5200
      2 C1        -16.2639    15.7948   -17.3887 C.2        1  LIG1   0.5200
      3 C2        -16.0345    14.7040   -16.3745 C.3        1  LIG1  -0.1400
      4 C3        -14.9243    15.1286   -15.4110 C.3        1  LIG1  -0.0800
      5 C4        -14.6949    14.0378   -14.3968 C.ar       1  LIG1  -0.0300
      6 C5        -15.4424    12.8770   -14.4500 C.ar       1  LIG1  -0.1500
      7 C6        -15.2314    11.8747   -13.5180 C.ar       1  LIG1   0.1200
      8 F1        -15.9616    10.7393   -13.5697 F          1  LIG1  -0.1300
      9 C7        -14.2716    12.0366   -12.5336 C.ar       1  LIG1  -0.1500
     10 C8        -13.5246    13.1984   -12.4817 C.ar       1  LIG1  -0.0600
     11 C9        -13.7319    14.1966   -13.4163 C.ar       1  LIG1  -0.1100
     12 Br1       -12.7095    15.7857   -13.3443 Br         1  LIG1  -0.0400
     13 N1        -17.2019    15.6401   -18.3440 N.am       1  LIG1  -0.7400
     14 C10       -17.4292    16.7031   -19.3261 C.3        1  LIG1   0.0900
     15 C11       -18.4931    17.6672   -18.7972 C.3        1  LIG1  -0.0300
     16 N2        -19.7464    16.9359   -18.5684 N.4        1  LIG1  -0.3600
     17 H1        -19.5283    16.0348   -18.1702 H          1  LIG1   0.4200
     18 C12       -20.4213    16.7321   -19.8647 C.3        1  LIG1   0.0000
     19 C13       -21.3813    15.5743   -19.7434 C.3        1  LIG1  -0.1900
     20 C14       -22.7898    16.0464   -19.3455 C.3        1  LIG1   0.0500
     21 O2        -22.7581    17.0785   -18.3402 O.3        1  LIG1  -0.3700
     22 C15       -21.8302    16.9098   -17.2974 C.3        1  LIG1   0.0500
     23 C16       -20.5295    17.6562   -17.6543 C.3        1  LIG1  -0.0800
     24 H2        -16.9535    14.5286   -15.8151 H          1  LIG1   0.1000
     25 H3        -15.7403    13.7877   -16.8864 H          1  LIG1   0.1000
     26 H4        -14.0054    15.3040   -15.9703 H          1  LIG1   0.1000
     27 H5        -15.2184    16.0448   -14.8990 H          1  LIG1   0.0900
     28 H6        -16.1913    12.7515   -15.2180 H          1  LIG1   0.1500
     29 H7        -14.1068    11.2555   -11.8062 H          1  LIG1   0.1500
     30 H8        -12.7761    13.3250   -11.7136 H          1  LIG1   0.1500
     31 H9        -17.7265    14.8251   -18.3812 H          1  LIG1   0.4100
     32 H10       -16.4994    17.2458   -19.4959 H          1  LIG1   0.0900
     33 H11       -17.7704    16.2646   -20.2639 H          1  LIG1   0.0900
     34 H12       -18.1519    18.1058   -17.8594 H          1  LIG1   0.1400
     35 H13       -18.6621    18.4581   -19.5279 H          1  LIG1   0.1400
     36 H14       -20.9702    17.6339   -20.1358 H          1  LIG1   0.1400
     37 H15       -19.6789    16.5112   -20.6315 H          1  LIG1   0.1400
     38 H16       -21.4368    15.0561   -20.7008 H          1  LIG1   0.1300
     39 H17       -21.0108    14.8826   -18.9867 H          1  LIG1   0.0900
     40 H18       -23.2966    16.4308   -20.2306 H          1  LIG1   0.1100
     41 H19       -23.3519    15.1955   -18.9606 H          1  LIG1   0.0800
     42 H20       -22.2423    17.3165   -16.3739 H          1  LIG1   0.1300
     43 H21       -21.6183    15.8487   -17.1665 H          1  LIG1   0.0800
     44 H22       -19.9514    17.8166   -16.7443 H          1  LIG1   0.1400
     45 H23       -20.7833    18.6241   -18.0867 H          1  LIG1   0.1400
@<TRIPOS>BOND
     1    1    2 2
     2    2    3 1
     3    2   13 am
     4    3    4 1
     5    3   24 1
     6    3   25 1
     7    4    5 1
     8    4   26 1
     9    4   27 1
    10    5   11 ar
    11    5    6 ar
    12    6    7 ar
    13    6   28 1
    14    7    8 1
    15    7    9 ar
    16    9   10 ar
    17    9   29 1
    18   10   11 ar
    19   10   30 1
    20   11   12 1
    21   13   14 1
    22   13   31 1
    23   14   15 1
    24   14   32 1
    25   14   33 1
    26   15   16 1
    27   15   34 1
    28   15   35 1
    29   16   17 1
    30   16   23 1
    31   16   18 1
    32   18   19 1
    33   18   36 1
    34   18   37 1
    35   19   20 1
    36   19   38 1
    37   19   39 1
    38   20   21 1
    39   20   40 1
    40   20   41 1
    41   21   22 1
    42   22   23 1
    43   22   42 1
    44   22   43 1
    45   23   44 1
    46   23   45 1
##########                 Name:     ZINC000237215751
##########          Protonation:                 none
##########               SMILES:   CN(CCC1=C2C=CC=CC2=CC=C1)C(=O)C[C@H]1CSCC[NH2+]1
##########            Long Name:   NO_LONG_NAME
##########          FlexRecCode: 1
##########               Number:                14192
##########   Ligand Source File: /nfs/db/export/3D/EF/ADRO/EFADRO.xbnh.db2.gz
##########                 Rank:                    1
##########               Setnum:                   26
##########             Matchnum:                    1
##########                Cloud:                    1
##########        Electrostatic:           -43.457035
##########                 Gist:             0.000000
##########        Van der Waals:           -26.714016
##########  Ligand Polar Desolv:            13.452789
########## Ligand Apolar Desolv:            -3.904700
##########      Internal Energy:             0.000000
##########      Receptor Energy:             0.000000
########## Receptor Desolvation:             0.000000
########## Receptor Hydrophobic:             0.000000
##########         Total Energy:           -60.622963
##########        Ligand Charge:             1.000000
##########            Arbitrary:    +999.9990
##########        Ligand Energy:             0.000000

@<TRIPOS>MOLECULE
 ZINC000237215751      none
   48    50     0     0     0



@<TRIPOS>ATOM
      1 C1        -19.4753    18.7296   -22.0892 C.3        1  LIG1   0.0600
      2 N1        -18.2867    19.4371   -21.6064 N.am       1  LIG1  -0.5900
      3 C2        -17.7841    20.6054   -22.3335 C.3        1  LIG1   0.1100
      4 C3        -16.7721    20.1532   -23.3882 C.3        1  LIG1  -0.0900
      5 C4        -16.2552    21.3550   -24.1361 C.ar       1  LIG1  -0.0800
      6 C5        -15.1122    22.0329   -23.6798 C.ar       1  LIG1  -0.0400
      7 C6        -14.4267    21.6138   -22.5266 C.ar       1  LIG1  -0.1200
      8 C7        -13.3229    22.2948   -22.1145 C.ar       1  LIG1  -0.1100
      9 C8        -12.8599    23.4047   -22.8190 C.ar       1  LIG1  -0.1200
     10 C9        -13.4980    23.8398   -23.9395 C.ar       1  LIG1  -0.1000
     11 C10       -14.6410    23.1614   -24.3966 C.ar       1  LIG1  -0.0500
     12 C11       -15.3261    23.5804   -25.5494 C.ar       1  LIG1  -0.1000
     13 C12       -16.4296    22.8984   -25.9624 C.ar       1  LIG1  -0.1200
     14 C13       -16.8897    21.7861   -25.2607 C.ar       1  LIG1  -0.1000
     15 C14       -17.6558    19.0133   -20.4935 C.2        1  LIG1   0.5000
     16 O1        -16.6718    19.5991   -20.0938 O.2        1  LIG1  -0.5500
     17 C15       -18.1730    17.8117   -19.7454 C.3        1  LIG1  -0.1700
     18 C16       -17.2824    17.5454   -18.5302 C.3        1  LIG1   0.0400
     19 H1        -16.2395    17.7064   -18.8033 H          1  LIG1   0.1600
     20 C17       -17.6660    18.5046   -17.3980 C.3        1  LIG1  -0.1300
     21 S1        -16.5370    18.2242   -15.9992 S.3        1  LIG1  -0.1800
     22 C18       -16.6389    16.4193   -15.7935 C.3        1  LIG1  -0.1300
     23 C19       -16.4041    15.7622   -17.1581 C.3        1  LIG1  -0.0100
     24 N2        -17.4616    16.1604   -18.0899 N.4        1  LIG1  -0.5100
     25 H2        -18.3568    16.0696   -17.6331 H          1  LIG1   0.4200
     26 H3        -17.4385    15.5537   -18.8958 H          1  LIG1   0.4400
     27 H4        -19.6959    17.8944   -21.4244 H          1  LIG1   0.0700
     28 H5        -20.3235    19.4140   -22.1064 H          1  LIG1   0.0800
     29 H6        -19.2909    18.3541   -23.0956 H          1  LIG1   0.0900
     30 H7        -18.6150    21.1146   -22.8219 H          1  LIG1   0.0900
     31 H8        -17.3002    21.2877   -21.6348 H          1  LIG1   0.0900
     32 H9        -15.9413    19.6442   -22.8998 H          1  LIG1   0.0800
     33 H10       -17.2561    19.4709   -24.0870 H          1  LIG1   0.0800
     34 H11       -14.7744    20.7558   -21.9703 H          1  LIG1   0.1200
     35 H12       -12.7981    21.9706   -21.2282 H          1  LIG1   0.1200
     36 H13       -11.9817    23.9276   -22.4703 H          1  LIG1   0.1300
     37 H14       -13.1281    24.7017   -24.4748 H          1  LIG1   0.1300
     38 H15       -14.9794    24.4393   -26.1048 H          1  LIG1   0.1300
     39 H16       -16.9545    23.2228   -26.8486 H          1  LIG1   0.1300
     40 H17       -17.7674    21.2627   -25.6099 H          1  LIG1   0.1200
     41 H18       -19.1935    18.0020   -19.4132 H          1  LIG1   0.1500
     42 H19       -18.1609    16.9420   -20.4023 H          1  LIG1   0.1200
     43 H20       -17.5732    19.5344   -17.7430 H          1  LIG1   0.1500
     44 H21       -18.6920    18.3107   -17.0853 H          1  LIG1   0.1100
     45 H22       -15.8751    16.0869   -15.0905 H          1  LIG1   0.1600
     46 H23       -17.6268    16.1482   -15.4214 H          1  LIG1   0.1100
     47 H24       -15.4370    16.0772   -17.5501 H          1  LIG1   0.1500
     48 H25       -16.4111    14.6781   -17.0438 H          1  LIG1   0.1500
@<TRIPOS>BOND
     1    1    2 1
     2    1   27 1
     3    1   28 1
     4    1   29 1
     5    2    3 1
     6    2   15 am
     7    3    4 1
     8    3   30 1
     9    3   31 1
    10    4    5 1
    11    4   32 1
    12    4   33 1
    13    5   14 ar
    14    5    6 ar
    15    6   11 ar
    16    6    7 ar
    17    7    8 ar
    18    7   34 1
    19    8    9 ar
    20    8   35 1
    21    9   10 ar
    22    9   36 1
    23   10   11 ar
    24   10   37 1
    25   11   12 ar
    26   12   13 ar
    27   12   38 1
    28   13   14 ar
    29   13   39 1
    30   14   40 1
    31   15   16 2
    32   15   17 1
    33   17   18 1
    34   17   41 1
    35   17   42 1
    36   18   19 1
    37   18   24 1
    38   18   20 1
    39   20   21 1
    40   20   43 1
    41   20   44 1
    42   21   22 1
    43   22   23 1
    44   22   45 1
    45   22   46 1
    46   23   24 1
    47   23   47 1
    48   23   48 1
    49   24   25 1
    50   24   26 1
##########                 Name:     ZINC000291934037
##########          Protonation:                 none
##########               SMILES:   CCOC1=CC=CC=C1NC(=O)[C@@H](C)[N@H+]1CC[C@@H](N2C=CC=N2)C1
##########            Long Name:   NO_LONG_NAME
##########          FlexRecCode: 1
##########               Number:                10100
##########   Ligand Source File: /nfs/db/export/3D/EF/ADMO/EFADMO.xbpb.db2.gz
##########                 Rank:                    1
##########               Setnum:                   28
##########             Matchnum:                    1
##########                Cloud:                    1
##########        Electrostatic:           -43.233227
##########                 Gist:             0.000000
##########        Van der Waals:           -30.606804
##########  Ligand Polar Desolv:            17.903097
########## Ligand Apolar Desolv:            -4.722291
##########      Internal Energy:             0.000000
##########      Receptor Energy:             0.000000
########## Receptor Desolvation:             0.000000
########## Receptor Hydrophobic:             0.000000
##########         Total Energy:           -60.659222
##########        Ligand Charge:             1.000000
##########            Arbitrary:    +999.9990
##########        Ligand Energy:             0.000000

@<TRIPOS>MOLECULE
 ZINC000291934037      none
   49    51     0     0     0



@<TRIPOS>ATOM
      1 C1        -15.2952    12.0678   -15.4207 C.3        1  LIG1  -0.1500
      2 C2        -14.8929    13.3852   -14.7547 C.3        1  LIG1   0.0600
      3 O1        -15.6797    14.4503   -15.2921 O.3        1  LIG1  -0.3200
      4 C3        -15.1063    15.6826   -15.3308 C.ar       1  LIG1   0.1200
      5 C4        -14.1640    16.0401   -14.3808 C.ar       1  LIG1  -0.1900
      6 C5        -13.5821    17.2939   -14.4213 C.ar       1  LIG1  -0.0800
      7 C6        -13.9376    18.1935   -15.4088 C.ar       1  LIG1  -0.1400
      8 C7        -14.8773    17.8443   -16.3608 C.ar       1  LIG1  -0.0900
      9 C8        -15.4610    16.5867   -16.3300 C.ar       1  LIG1   0.0900
     10 N1        -16.4132    16.2304   -17.2941 N.am       1  LIG1  -0.6300
     11 C9        -17.1947    17.1766   -17.8514 C.2        1  LIG1   0.5000
     12 O2        -17.0736    18.3366   -17.5183 O.2        1  LIG1  -0.5100
     13 C10       -18.2189    16.7934   -18.8883 C.3        1  LIG1   0.0100
     14 H1        -18.3634    17.6231   -19.5802 H          1  LIG1   0.1600
     15 C11       -17.7294    15.5658   -19.6594 C.3        1  LIG1  -0.1800
     16 N2        -19.4924    16.4801   -18.2264 N.4        1  LIG1  -0.3800
     17 H2        -19.3708    15.7127   -17.5828 H          1  LIG1   0.4400
     18 C12       -20.0035    17.6753   -17.5077 C.3        1  LIG1  -0.0100
     19 C13       -21.5193    17.3854   -17.3710 C.3        1  LIG1  -0.1600
     20 C14       -21.8616    16.6954   -18.7115 C.3        1  LIG1   0.1500
     21 H3        -22.5676    15.8812   -18.5485 H          1  LIG1   0.1500
     22 N3        -22.4171    17.6675   -19.6563 N.pl3      1  LIG1  -0.3900
     23 C15       -23.6402    17.6133   -20.2241 C.2        1  LIG1   0.0300
     24 C16       -23.7685    18.6919   -21.0311 C.2        1  LIG1  -0.2400
     25 C17       -22.5833    19.4307   -20.9537 C.2        1  LIG1   0.0600
     26 N4        -21.7748    18.8206   -20.1253 N.2        1  LIG1  -0.2800
     27 C18       -20.5214    16.1430   -19.2339 C.3        1  LIG1  -0.0200
     28 H4        -14.6951    11.2554   -15.0108 H          1  LIG1   0.0900
     29 H5        -16.3504    11.8719   -15.2303 H          1  LIG1   0.0700
     30 H6        -15.1267    12.1376   -16.4953 H          1  LIG1   0.0700
     31 H7        -15.0615    13.3154   -13.6801 H          1  LIG1   0.0700
     32 H8        -13.8377    13.5812   -14.9451 H          1  LIG1   0.0700
     33 H9        -13.8840    15.3396   -13.6079 H          1  LIG1   0.1400
     34 H10       -12.8480    17.5712   -13.6791 H          1  LIG1   0.1300
     35 H11       -13.4804    19.1715   -15.4365 H          1  LIG1   0.1300
     36 H12       -15.1536    18.5494   -17.1309 H          1  LIG1   0.1500
     37 H13       -16.5101    15.3026   -17.5604 H          1  LIG1   0.4200
     38 H14       -18.4701    15.2886   -20.4093 H          1  LIG1   0.1000
     39 H15       -16.7844    15.7982   -20.1505 H          1  LIG1   0.1100
     40 H16       -17.5847    14.7361   -18.9675 H          1  LIG1   0.0900
     41 H17       -19.5383    17.7618   -16.5257 H          1  LIG1   0.1600
     42 H18       -19.8359    18.5782   -18.0948 H          1  LIG1   0.1300
     43 H19       -21.7099    16.7153   -16.5326 H          1  LIG1   0.1300
     44 H20       -22.0810    18.3128   -17.2602 H          1  LIG1   0.1300
     45 H21       -24.3833    16.8462   -20.0635 H          1  LIG1   0.1700
     46 H22       -24.6331    18.9386   -21.6293 H          1  LIG1   0.1600
     47 H23       -22.3737    20.3486   -21.4825 H          1  LIG1   0.1900
     48 H24       -20.2735    16.6098   -20.1871 H          1  LIG1   0.1400
     49 H25       -20.5866    15.0615   -19.3528 H          1  LIG1   0.1500
@<TRIPOS>BOND
     1    1    2 1
     2    1   28 1
     3    1   29 1
     4    1   30 1
     5    2    3 1
     6    2   31 1
     7    2   32 1
     8    3    4 1
     9    4    9 ar
    10    4    5 ar
    11    5    6 ar
    12    5   33 1
    13    6    7 ar
    14    6   34 1
    15    7    8 ar
    16    7   35 1
    17    8    9 ar
    18    8   36 1
    19    9   10 1
    20   10   11 am
    21   10   37 1
    22   11   12 2
    23   11   13 1
    24   13   14 1
    25   13   15 1
    26   13   16 1
    27   15   38 1
    28   15   39 1
    29   15   40 1
    30   16   17 1
    31   16   27 1
    32   16   18 1
    33   18   19 1
    34   18   41 1
    35   18   42 1
    36   19   20 1
    37   19   43 1
    38   19   44 1
    39   20   21 1
    40   20   22 1
    41   20   27 1
    42   22   26 1
    43   22   23 1
    44   23   24 2
    45   23   45 1
    46   24   25 1
    47   24   46 1
    48   25   26 2
    49   25   47 1
    50   27   48 1
    51   27   49 1
##########                 Name:     ZINC000360864270
##########          Protonation:                 none
##########               SMILES:   CC1=CN=C(N[C@H]2C[N@H+](CC3=CC=CC=C3)C[C@@H]2C)C([N+](=O)[O-])=C1
##########            Long Name:   NO_LONG_NAME
##########          FlexRecCode: 1
##########               Number:                 2284
##########   Ligand Source File: /nfs/db/export/3D/EG/BDMO/EGBDMO.xar.db2.gz
##########                 Rank:                    1
##########               Setnum:                   19
##########             Matchnum:                    1
##########                Cloud:                    1
##########        Electrostatic:           -34.000938
##########                 Gist:             0.000000
##########        Van der Waals:           -35.856956
##########  Ligand Polar Desolv:            15.981791
########## Ligand Apolar Desolv:            -6.936957
##########      Internal Energy:             0.000000
##########      Receptor Energy:             0.000000
########## Receptor Desolvation:             0.000000
########## Receptor Hydrophobic:             0.000000
##########         Total Energy:           -60.813061
##########        Ligand Charge:             1.000000
##########            Arbitrary:    +999.9990
##########        Ligand Energy:             0.000000

@<TRIPOS>MOLECULE
 ZINC000360864270      none
   47    49     0     0     0



@<TRIPOS>ATOM
      1 C1        -13.1405    14.4010   -12.0760 C.3        1  LIG1  -0.1100
      2 C2        -14.0078    14.4508   -13.3074 C.ar       1  LIG1  -0.1800
      3 C3        -14.0060    15.5690   -14.1166 C.ar       1  LIG1   0.2100
      4 N1        -14.7617    15.6239   -15.1970 N.ar       1  LIG1  -0.5300
      5 C4        -15.5465    14.6166   -15.5472 C.ar       1  LIG1   0.4600
      6 N2        -16.3258    14.7169   -16.6937 N.pl3      1  LIG1  -0.7100
      7 C5        -16.2769    15.9334   -17.5085 C.3        1  LIG1   0.1400
      8 H1        -15.2529    16.3000   -17.5794 H          1  LIG1   0.1400
      9 C6        -16.8467    15.6588   -18.9169 C.3        1  LIG1  -0.0200
     10 N3        -18.2710    16.0725   -18.8316 N.4        1  LIG1  -0.4000
     11 H2        -18.8198    15.3567   -18.3792 H          1  LIG1   0.4300
     12 C7        -18.8038    16.3593   -20.1702 C.3        1  LIG1   0.0500
     13 C8        -20.2475    16.7761   -20.0577 C.ar       1  LIG1  -0.1600
     14 C9        -20.7895    17.6477   -20.9838 C.ar       1  LIG1  -0.0900
     15 C10       -22.1139    18.0301   -20.8807 C.ar       1  LIG1  -0.1200
     16 C11       -22.8965    17.5407   -19.8517 C.ar       1  LIG1  -0.0800
     17 C12       -22.3548    16.6683   -18.9262 C.ar       1  LIG1  -0.1100
     18 C13       -21.0315    16.2825   -19.0317 C.ar       1  LIG1  -0.0900
     19 C14       -18.2438    17.3065   -18.0050 C.3        1  LIG1   0.0000
     20 C15       -17.1939    17.0183   -16.9071 C.3        1  LIG1  -0.1200
     21 H3        -17.6809    16.6454   -16.0061 H          1  LIG1   0.1100
     22 C16       -16.3931    18.2835   -16.5925 C.3        1  LIG1  -0.1500
     23 C17       -15.5977    13.4584   -14.7779 C.ar       1  LIG1  -0.1700
     24 N4        -16.4015    12.4291   -15.1389 N.pl3      1  LIG1   0.0800
     25 O1        -17.0857    12.5138   -16.1430 O.2        1  LIG1  -0.1500
     26 O2        -16.4398    11.4191   -14.4593 O.2        1  LIG1  -0.2100
     27 C18       -14.8128    13.3699   -13.6426 C.ar       1  LIG1   0.0400
     28 H4        -12.5873    15.3356   -11.9832 H          1  LIG1   0.0800
     29 H5        -13.7675    14.2608   -11.1954 H          1  LIG1   0.0800
     30 H6        -12.4394    13.5705   -12.1588 H          1  LIG1   0.0800
     31 H7        -13.3781    16.4100   -13.8620 H          1  LIG1   0.1800
     32 H8        -16.9020    13.9814   -16.9543 H          1  LIG1   0.4200
     33 H9        -16.3216    16.2556   -19.6625 H          1  LIG1   0.1400
     34 H10       -16.7727    14.5981   -19.1568 H          1  LIG1   0.1300
     35 H11       -18.2275    17.1647   -20.6256 H          1  LIG1   0.1400
     36 H12       -18.7307    15.4653   -20.7895 H          1  LIG1   0.1400
     37 H13       -20.1780    18.0301   -21.7877 H          1  LIG1   0.1300
     38 H14       -22.5370    18.7115   -21.6037 H          1  LIG1   0.1300
     39 H15       -23.9310    17.8400   -19.7706 H          1  LIG1   0.1400
     40 H16       -22.9661    16.2861   -18.1220 H          1  LIG1   0.1400
     41 H17       -20.6084    15.6011   -18.3086 H          1  LIG1   0.1300
     42 H18       -17.9373    18.1613   -18.6079 H          1  LIG1   0.1400
     43 H19       -19.2216    17.4865   -17.5581 H          1  LIG1   0.1400
     44 H20       -17.0566    19.0375   -16.1690 H          1  LIG1   0.0800
     45 H21       -15.6072    18.0470   -15.8750 H          1  LIG1   0.0800
     46 H22       -15.9450    18.6673   -17.5090 H          1  LIG1   0.0700
     47 H23       -14.8314    12.4833   -13.0262 H          1  LIG1   0.1700
@<TRIPOS>BOND
     1    1    2 1
     2    1   28 1
     3    1   29 1
     4    1   30 1
     5    2   27 ar
     6    2    3 ar
     7    3    4 ar
     8    3   31 1
     9    4    5 ar
    10    5    6 1
    11    5   23 ar
    12    6    7 1
    13    6   32 1
    14    7    8 1
    15    7   20 1
    16    7    9 1
    17    9   10 1
    18    9   33 1
    19    9   34 1
    20   10   11 1
    21   10   12 1
    22   10   19 1
    23   12   13 1
    24   12   35 1
    25   12   36 1
    26   13   18 ar
    27   13   14 ar
    28   14   15 ar
    29   14   37 1
    30   15   16 ar
    31   15   38 1
    32   16   17 ar
    33   16   39 1
    34   17   18 ar
    35   17   40 1
    36   18   41 1
    37   19   20 1
    38   19   42 1
    39   19   43 1
    40   20   21 1
    41   20   22 1
    42   22   44 1
    43   22   45 1
    44   22   46 1
    45   23   24 1
    46   23   27 ar
    47   24   25 2
    48   24   26 2
    49   27   47 1
##########                 Name:     ZINC000372544534
##########          Protonation:                 none
##########               SMILES:   CC1=CC2=NN=C(C3CC[NH+](CC4=CC=CC=C4)CC3)N2C=C1
##########            Long Name:   NO_LONG_NAME
##########          FlexRecCode: 1
##########               Number:                 3140
##########   Ligand Source File: /nfs/db/export/3D/DG/ADRO/DGADRO.xbze.db2.gz
##########                 Rank:                    1
##########               Setnum:                   12
##########             Matchnum:                    1
##########                Cloud:                    1
##########        Electrostatic:           -36.121811
##########                 Gist:             0.000000
##########        Van der Waals:           -34.686989
##########  Ligand Polar Desolv:            17.971767
########## Ligand Apolar Desolv:            -7.871696
##########      Internal Energy:             0.000000
##########      Receptor Energy:             0.000000
########## Receptor Desolvation:             0.000000
########## Receptor Hydrophobic:             0.000000
##########         Total Energy:           -60.708729
##########        Ligand Charge:             1.000000
##########            Arbitrary:    +999.9990
##########        Ligand Energy:             0.000000

@<TRIPOS>MOLECULE
 ZINC000372544534      none
   46    49     0     0     0



@<TRIPOS>ATOM
      1 C1        -14.9856    11.1447   -12.9370 C.3        1  LIG1  -0.1200
      2 C2        -15.0317    12.4960   -13.6027 C.2        1  LIG1  -0.0400
      3 C3        -14.1353    13.4586   -13.2561 C.2        1  LIG1  -0.0900
      4 C4        -14.1952    14.7143   -13.8905 C.2        1  LIG1   0.2100
      5 N1        -13.4862    15.8257   -13.7778 N.2        1  LIG1  -0.2800
      6 N2        -13.9438    16.7111   -14.5919 N.2        1  LIG1  -0.2300
      7 C5        -14.9568    16.2287   -15.2641 C.2        1  LIG1   0.1100
      8 C6        -15.7596    16.9573   -16.3108 C.3        1  LIG1   0.0000
      9 C7        -15.6694    16.2044   -17.6414 C.3        1  LIG1  -0.1400
     10 C8        -16.5500    16.9049   -18.6783 C.3        1  LIG1   0.0000
     11 N3        -17.9427    16.9172   -18.2147 N.4        1  LIG1  -0.3800
     12 H1        -18.2466    15.9708   -18.0411 H          1  LIG1   0.4300
     13 C9        -18.7953    17.5223   -19.2466 C.3        1  LIG1   0.0400
     14 C10       -20.2270    17.1094   -19.0208 C.ar       1  LIG1  -0.1600
     15 C11       -20.7160    15.9593   -19.6115 C.ar       1  LIG1  -0.0900
     16 C12       -22.0293    15.5806   -19.4044 C.ar       1  LIG1  -0.1100
     17 C13       -22.8533    16.3518   -18.6062 C.ar       1  LIG1  -0.0800
     18 C14       -22.3640    17.5014   -18.0147 C.ar       1  LIG1  -0.1100
     19 C15       -21.0495    17.8778   -18.2184 C.ar       1  LIG1  -0.1000
     20 C16       -18.0486    17.6986   -16.9767 C.3        1  LIG1  -0.0100
     21 C17       -17.2256    17.0286   -15.8742 C.3        1  LIG1  -0.1400
     22 N4        -15.1534    14.9489   -14.8460 N.pl3      1  LIG1  -0.3800
     23 C18       -16.0459    13.9745   -15.1837 C.2        1  LIG1   0.0500
     24 C19       -15.9972    12.7645   -14.5880 C.2        1  LIG1  -0.1200
     25 H2        -14.1764    11.1268   -12.2069 H          1  LIG1   0.0800
     26 H3        -15.9335    10.9553   -12.4333 H          1  LIG1   0.0800
     27 H4        -14.8135    10.3749   -13.6892 H          1  LIG1   0.0800
     28 H5        -13.3866    13.2622   -12.5029 H          1  LIG1   0.1600
     29 H6        -15.3666    17.9665   -16.4346 H          1  LIG1   0.1000
     30 H7        -14.6355    16.1979   -17.9866 H          1  LIG1   0.1100
     31 H8        -16.0144    15.1796   -17.5037 H          1  LIG1   0.1000
     32 H9        -16.2040    17.9295   -18.8154 H          1  LIG1   0.1300
     33 H10       -16.4880    16.3715   -19.6269 H          1  LIG1   0.1400
     34 H11       -18.7173    18.6081   -19.1916 H          1  LIG1   0.1400
     35 H12       -18.4705    17.1840   -20.2305 H          1  LIG1   0.1400
     36 H13       -20.0721    15.3569   -20.2351 H          1  LIG1   0.1300
     37 H14       -22.4116    14.6824   -19.8665 H          1  LIG1   0.1400
     38 H15       -23.8795    16.0563   -18.4449 H          1  LIG1   0.1400
     39 H16       -23.0079    18.1042   -17.3914 H          1  LIG1   0.1400
     40 H17       -20.6673    18.7760   -17.7564 H          1  LIG1   0.1300
     41 H18       -17.6707    18.7062   -17.1500 H          1  LIG1   0.1300
     42 H19       -19.0929    17.7510   -16.6690 H          1  LIG1   0.1400
     43 H20       -17.6029    16.0209   -15.6999 H          1  LIG1   0.1000
     44 H21       -17.3042    17.6111   -14.9564 H          1  LIG1   0.1100
     45 H22       -16.7949    14.1715   -15.9363 H          1  LIG1   0.1700
     46 H23       -16.7093    12.0009   -14.8642 H          1  LIG1   0.1600
@<TRIPOS>BOND
     1    1    2 1
     2    1   25 1
     3    1   26 1
     4    1   27 1
     5    2   24 1
     6    2    3 2
     7    3    4 1
     8    3   28 1
     9    4   22 1
    10    4    5 2
    11    5    6 1
    12    6    7 2
    13    7    8 1
    14    7   22 1
    15    8   21 1
    16    8    9 1
    17    8   29 1
    18    9   10 1
    19    9   30 1
    20    9   31 1
    21   10   11 1
    22   10   32 1
    23   10   33 1
    24   11   12 1
    25   11   13 1
    26   11   20 1
    27   13   14 1
    28   13   34 1
    29   13   35 1
    30   14   19 ar
    31   14   15 ar
    32   15   16 ar
    33   15   36 1
    34   16   17 ar
    35   16   37 1
    36   17   18 ar
    37   17   38 1
    38   18   19 ar
    39   18   39 1
    40   19   40 1
    41   20   21 1
    42   20   41 1
    43   20   42 1
    44   21   43 1
    45   21   44 1
    46   22   23 1
    47   23   24 2
    48   23   45 1
    49   24   46 1
##########                 Name:     ZINC000453027720
##########          Protonation:                 none
##########               SMILES:   COC1=CC=CC(OC)=C1OC[C@H](O)C[N@H+]1C[C@@H](C2CC2)[C@H]1C1CC1
##########            Long Name:   NO_LONG_NAME
##########          FlexRecCode: 1
##########               Number:                 9406
##########   Ligand Source File: /nfs/db/export/3D/EF/ADMO/EFADMO.xaki.db2.gz
##########                 Rank:                    1
##########               Setnum:                  369
##########             Matchnum:                    1
##########                Cloud:                    1
##########        Electrostatic:           -38.947628
##########                 Gist:             0.000000
##########        Van der Waals:           -30.406607
##########  Ligand Polar Desolv:            12.634223
########## Ligand Apolar Desolv:            -4.034339
##########      Internal Energy:             0.000000
##########      Receptor Energy:             0.000000
########## Receptor Desolvation:             0.000000
########## Receptor Hydrophobic:             0.000000
##########         Total Energy:           -60.754349
##########        Ligand Charge:             1.000000
##########            Arbitrary:    +999.9990
##########        Ligand Energy:             0.000000

@<TRIPOS>MOLECULE
 ZINC000453027720      none
   55    58     0     0     0



@<TRIPOS>ATOM
      1 C1        -13.4334    16.4987   -14.6163 C.3        1  LIG1   0.0200
      2 O1        -14.2251    17.6753   -14.4404 O.3        1  LIG1  -0.3100
      3 C2        -13.9378    18.7380   -15.2389 C.ar       1  LIG1   0.1600
      4 C3        -13.0060    19.6807   -14.8314 C.ar       1  LIG1  -0.2300
      5 C4        -12.7134    20.7611   -15.6424 C.ar       1  LIG1  -0.0300
      6 C5        -13.3472    20.9064   -16.8623 C.ar       1  LIG1  -0.2300
      7 C6        -14.2803    19.9681   -17.2770 C.ar       1  LIG1   0.1500
      8 O2        -14.9034    20.1120   -18.4771 O.3        1  LIG1  -0.3100
      9 C7        -14.2728    19.5138   -19.6114 C.3        1  LIG1   0.0200
     10 C8        -14.5735    18.8775   -16.4668 C.ar       1  LIG1   0.0100
     11 O3        -15.4886    17.9546   -16.8702 O.3        1  LIG1  -0.2900
     12 C9        -16.8505    18.1894   -16.5067 C.3        1  LIG1   0.0300
     13 C10       -17.7247    17.0543   -17.0438 C.3        1  LIG1   0.0900
     14 H1        -18.6645    17.0275   -16.4924 H          1  LIG1   0.1300
     15 O4        -17.0417    15.8096   -16.8818 O.3        1  LIG1  -0.5400
     16 C11       -18.0108    17.2897   -18.5283 C.3        1  LIG1  -0.0400
     17 N1        -19.1939    16.5158   -18.9276 N.4        1  LIG1  -0.4000
     18 H2        -19.0789    15.5227   -18.7909 H          1  LIG1   0.4400
     19 C12       -20.4542    17.0422   -18.3713 C.3        1  LIG1   0.0000
     20 C13       -21.1229    16.7011   -19.7104 C.3        1  LIG1  -0.0800
     21 H3        -21.5077    15.6830   -19.7705 H          1  LIG1   0.1300
     22 C14       -22.1203    17.7536   -20.1986 C.3        1  LIG1  -0.1700
     23 C15       -23.6068    17.3947   -20.1498 C.3        1  LIG1  -0.1700
     24 C16       -23.0302    18.4030   -19.1539 C.3        1  LIG1  -0.1700
     25 C17       -19.7008    16.8687   -20.2669 C.3        1  LIG1   0.0700
     26 H4        -19.4463    16.1384   -21.0350 H          1  LIG1   0.1400
     27 C18       -19.3748    18.3041   -20.6840 C.3        1  LIG1  -0.1900
     28 C19       -18.0755    18.5372   -21.4576 C.3        1  LIG1  -0.1600
     29 C20       -19.4222    18.6340   -22.1773 C.3        1  LIG1  -0.1500
     30 H5        -13.7659    15.7295   -13.9194 H          1  LIG1   0.1100
     31 H6        -13.5442    16.1357   -15.6380 H          1  LIG1   0.0600
     32 H7        -12.3861    16.7337   -14.4258 H          1  LIG1   0.0600
     33 H8        -12.5086    19.5707   -13.8792 H          1  LIG1   0.1400
     34 H9        -11.9878    21.4940   -15.3220 H          1  LIG1   0.1400
     35 H10       -13.1158    21.7520   -17.4929 H          1  LIG1   0.1400
     36 H11       -14.8720    19.7030   -20.5020 H          1  LIG1   0.0600
     37 H12       -13.2797    19.9437   -19.7437 H          1  LIG1   0.0600
     38 H13       -14.1854    18.4389   -19.4538 H          1  LIG1   0.1100
     39 H14       -16.9348    18.2300   -15.4207 H          1  LIG1   0.0700
     40 H15       -17.1821    19.1362   -16.9327 H          1  LIG1   0.0600
     41 H16       -17.5383    15.0440   -17.2015 H          1  LIG1   0.3900
     42 H17       -18.1958    18.3502   -18.6989 H          1  LIG1   0.1400
     43 H18       -17.1519    16.9710   -19.1188 H          1  LIG1   0.1400
     44 H19       -20.8365    16.4586   -17.5339 H          1  LIG1   0.1400
     45 H20       -20.4231    18.1113   -18.1613 H          1  LIG1   0.1500
     46 H21       -21.7795    18.3762   -21.0258 H          1  LIG1   0.1300
     47 H22       -24.2442    17.7810   -20.9450 H          1  LIG1   0.1000
     48 H23       -23.8742    16.4087   -19.7698 H          1  LIG1   0.1000
     49 H24       -22.9183    18.0804   -18.1187 H          1  LIG1   0.1000
     50 H25       -23.2883    19.4527   -19.2941 H          1  LIG1   0.1100
     51 H26       -19.6919    19.0798   -19.9869 H          1  LIG1   0.1300
     52 H27       -17.5375    19.4662   -21.2695 H          1  LIG1   0.1100
     53 H28       -17.4530    17.6678   -21.6693 H          1  LIG1   0.1100
     54 H29       -19.6857    17.8281   -22.8625 H          1  LIG1   0.1100
     55 H30       -19.7702    19.6267   -22.4626 H          1  LIG1   0.1100
@<TRIPOS>BOND
     1    1    2 1
     2    1   30 1
     3    1   31 1
     4    1   32 1
     5    2    3 1
     6    3   10 ar
     7    3    4 ar
     8    4    5 ar
     9    4   33 1
    10    5    6 ar
    11    5   34 1
    12    6    7 ar
    13    6   35 1
    14    7    8 1
    15    7   10 ar
    16    8    9 1
    17    9   36 1
    18    9   37 1
    19    9   38 1
    20   10   11 1
    21   11   12 1
    22   12   13 1
    23   12   39 1
    24   12   40 1
    25   13   14 1
    26   13   15 1
    27   13   16 1
    28   15   41 1
    29   16   17 1
    30   16   42 1
    31   16   43 1
    32   17   18 1
    33   17   25 1
    34   17   19 1
    35   19   20 1
    36   19   44 1
    37   19   45 1
    38   20   21 1
    39   20   22 1
    40   20   25 1
    41   22   24 1
    42   22   23 1
    43   22   46 1
    44   23   24 1
    45   23   47 1
    46   23   48 1
    47   24   49 1
    48   24   50 1
    49   25   26 1
    50   25   27 1
    51   27   29 1
    52   27   28 1
    53   27   51 1
    54   28   29 1
    55   28   52 1
    56   28   53 1
    57   29   54 1
    58   29   55 1
##########                 Name:     ZINC000290621043
##########          Protonation:                 none
##########               SMILES:   COC1=CC=C([C@H](C)[NH2+][C@@H](CO)CC2=CC=CC(C)=C2)C=C1O
##########            Long Name:   NO_LONG_NAME
##########          FlexRecCode: 1
##########               Number:                  115
##########   Ligand Source File: /nfs/db/export/3D/DF/ADRO/DFADRO.xbcx.db2.gz
##########                 Rank:                    1
##########               Setnum:                  144
##########             Matchnum:                    1
##########                Cloud:                    1
##########        Electrostatic:           -39.583195
##########                 Gist:             0.000000
##########        Van der Waals:           -31.450377
##########  Ligand Polar Desolv:            13.308373
########## Ligand Apolar Desolv:            -2.985181
##########      Internal Energy:             0.000000
##########      Receptor Energy:             0.000000
########## Receptor Desolvation:             0.000000
########## Receptor Hydrophobic:             0.000000
##########         Total Energy:           -60.710377
##########        Ligand Charge:             1.000000
##########            Arbitrary:    +999.9990
##########        Ligand Energy:             0.000000

@<TRIPOS>MOLECULE
 ZINC000290621043      none
   49    50     0     0     0



@<TRIPOS>ATOM
      1 C1        -13.2166    14.5843   -11.9180 C.3        1  LIG1   0.0200
      2 O1        -13.0890    14.5710   -13.3413 O.3        1  LIG1  -0.3000
      3 C2        -14.0975    15.1370   -14.0569 C.ar       1  LIG1   0.1300
      4 C3        -14.0453    16.4814   -14.3863 C.ar       1  LIG1  -0.1800
      5 C4        -15.0714    17.0552   -15.1145 C.ar       1  LIG1  -0.0900
      6 C5        -16.1509    16.2903   -15.5145 C.ar       1  LIG1  -0.1700
      7 C6        -17.2665    16.9209   -16.3073 C.3        1  LIG1   0.0800
      8 H1        -17.0474    17.9767   -16.4665 H          1  LIG1   0.1500
      9 C7        -18.5810    16.7834   -15.5365 C.3        1  LIG1  -0.1800
     10 N1        -17.3873    16.2446   -17.6058 N.4        1  LIG1  -0.5100
     11 H2        -16.4670    16.0442   -17.9676 H          1  LIG1   0.4300
     12 H3        -17.8981    15.3823   -17.4897 H          1  LIG1   0.4200
     13 C8        -18.1043    17.1156   -18.5468 C.3        1  LIG1   0.0300
     14 H4        -18.9227    17.6150   -18.0281 H          1  LIG1   0.1500
     15 C9        -17.1406    18.1636   -19.1071 C.3        1  LIG1   0.0500
     16 O2        -15.8730    17.5560   -19.3642 O.3        1  LIG1  -0.5800
     17 C10       -18.6659    16.2738   -19.6943 C.3        1  LIG1  -0.0900
     18 C11       -19.7789    17.0295   -20.3734 C.ar       1  LIG1  -0.1200
     19 C12       -19.4971    17.8693   -21.4344 C.ar       1  LIG1  -0.1500
     20 C13       -20.5183    18.5626   -22.0574 C.ar       1  LIG1  -0.1000
     21 C14       -21.8209    18.4156   -21.6195 C.ar       1  LIG1  -0.1100
     22 C15       -22.1029    17.5749   -20.5589 C.ar       1  LIG1  -0.0700
     23 C16       -23.5232    17.4148   -20.0812 C.3        1  LIG1  -0.1300
     24 C17       -21.0827    16.8784   -19.9388 C.ar       1  LIG1  -0.1100
     25 C18       -16.2090    14.9474   -15.1892 C.ar       1  LIG1  -0.0800
     26 C19       -15.1819    14.3653   -14.4647 C.ar       1  LIG1   0.0900
     27 O3        -15.2374    13.0448   -14.1440 O.3        1  LIG1  -0.4800
     28 H5        -12.3469    14.1029   -11.4708 H          1  LIG1   0.1100
     29 H6        -13.2810    15.6149   -11.5687 H          1  LIG1   0.0600
     30 H7        -14.1190    14.0457   -11.6290 H          1  LIG1   0.0600
     31 H8        -13.2033    17.0815   -14.0744 H          1  LIG1   0.1500
     32 H9        -15.0294    18.1036   -15.3708 H          1  LIG1   0.1200
     33 H10       -19.3878    17.2395   -16.1101 H          1  LIG1   0.1100
     34 H11       -18.8001    15.7277   -15.3773 H          1  LIG1   0.0800
     35 H12       -18.4913    17.2852   -14.5731 H          1  LIG1   0.0800
     36 H13       -17.5442    18.5689   -20.0351 H          1  LIG1   0.1000
     37 H14       -17.0175    18.9684   -18.3824 H          1  LIG1   0.0700
     38 H15       -15.9071    16.8297   -20.0017 H          1  LIG1   0.4100
     39 H16       -17.8745    16.0676   -20.4148 H          1  LIG1   0.1200
     40 H17       -19.0525    15.3341   -19.3002 H          1  LIG1   0.1100
     41 H18       -18.4792    17.9842   -21.7765 H          1  LIG1   0.1200
     42 H19       -20.2979    19.2194   -22.8859 H          1  LIG1   0.1300
     43 H20       -22.6184    18.9578   -22.1057 H          1  LIG1   0.1300
     44 H21       -23.5486    16.7176   -19.2438 H          1  LIG1   0.0800
     45 H22       -23.9099    18.3822   -19.7604 H          1  LIG1   0.0700
     46 H23       -24.1385    17.0289   -20.8940 H          1  LIG1   0.0700
     47 H24       -21.3031    16.2217   -19.1102 H          1  LIG1   0.1300
     48 H25       -17.0535    14.3519   -15.5031 H          1  LIG1   0.1500
     49 H26       -16.0278    12.5936   -14.4709 H          1  LIG1   0.4000
@<TRIPOS>BOND
     1    1    2 1
     2    1   28 1
     3    1   29 1
     4    1   30 1
     5    2    3 1
     6    3   26 ar
     7    3    4 ar
     8    4    5 ar
     9    4   31 1
    10    5    6 ar
    11    5   32 1
    12    6    7 1
    13    6   25 ar
    14    7    8 1
    15    7    9 1
    16    7   10 1
    17    9   33 1
    18    9   34 1
    19    9   35 1
    20   10   11 1
    21   10   12 1
    22   10   13 1
    23   13   14 1
    24   13   15 1
    25   13   17 1
    26   15   16 1
    27   15   36 1
    28   15   37 1
    29   16   38 1
    30   17   18 1
    31   17   39 1
    32   17   40 1
    33   18   24 ar
    34   18   19 ar
    35   19   20 ar
    36   19   41 1
    37   20   21 ar
    38   20   42 1
    39   21   22 ar
    40   21   43 1
    41   22   23 1
    42   22   24 ar
    43   23   44 1
    44   23   45 1
    45   23   46 1
    46   24   47 1
    47   25   26 ar
    48   25   48 1
    49   26   27 1
    50   27   49 1
##########                 Name:     ZINC000092891478
##########          Protonation:                 none
##########               SMILES:   NC1=[NH+]C(NCCCOCCC2=CC=CC=C2)=CC(N2C=CC=N2)=N1
##########            Long Name:   NO_LONG_NAME
##########          FlexRecCode: 1
##########               Number:                10778
##########   Ligand Source File: /nfs/db/export/3D/EE/ADRO/EEADRO.xdar.db2.gz
##########                 Rank:                    1
##########               Setnum:                  193
##########             Matchnum:                    1
##########                Cloud:                    1
##########        Electrostatic:           -38.540356
##########                 Gist:             0.000000
##########        Van der Waals:           -29.250946
##########  Ligand Polar Desolv:            11.210751
########## Ligand Apolar Desolv:            -3.967232
##########      Internal Energy:             0.000000
##########      Receptor Energy:             0.000000
########## Receptor Desolvation:             0.000000
########## Receptor Hydrophobic:             0.000000
##########         Total Energy:           -60.547787
##########        Ligand Charge:             1.000000
##########            Arbitrary:    +999.9990
##########        Ligand Energy:             0.000000

@<TRIPOS>MOLECULE
 ZINC000092891478      none
   48    50     0     0     0



@<TRIPOS>ATOM
      1 N1        -16.7825    14.6979   -14.9607 N.pl3      1  LIG1  -0.7900
      2 C1        -16.5297    15.7715   -15.7966 C.ar       1  LIG1   0.6900
      3 N2        -17.2127    15.8845   -16.9256 N.ar       1  LIG1  -0.5900
      4 H1        -17.8787    15.2167   -17.1520 H          1  LIG1   0.4400
      5 C2        -16.9962    16.9039   -17.7528 C.ar       1  LIG1   0.5100
      6 N3        -17.7152    17.0163   -18.9322 N.pl3      1  LIG1  -0.6800
      7 C3        -17.4687    18.1427   -19.8357 C.3        1  LIG1   0.1100
      8 C4        -18.3872    18.0296   -21.0542 C.3        1  LIG1  -0.1400
      9 C5        -18.1298    19.2062   -21.9979 C.3        1  LIG1   0.0700
     10 O1        -16.7665    19.1844   -22.4254 O.3        1  LIG1  -0.3900
     11 C6        -16.4192    20.2473   -23.3151 C.3        1  LIG1   0.0700
     12 C7        -16.1690    21.5246   -22.5109 C.3        1  LIG1  -0.0800
     13 C8        -15.8028    22.6454   -23.4493 C.ar       1  LIG1  -0.0900
     14 C9        -14.4789    22.8643   -23.7811 C.ar       1  LIG1  -0.1100
     15 C10       -14.1430    23.8926   -24.6418 C.ar       1  LIG1  -0.1200
     16 C11       -15.1311    24.7015   -25.1712 C.ar       1  LIG1  -0.1200
     17 C12       -16.4552    24.4819   -24.8401 C.ar       1  LIG1  -0.1200
     18 C13       -16.7914    23.4510   -23.9828 C.ar       1  LIG1  -0.1100
     19 C14       -16.0369    17.8570   -17.4168 C.ar       1  LIG1  -0.3100
     20 C15       -15.3410    17.7034   -16.2243 C.ar       1  LIG1   0.5500
     21 N4        -14.3712    18.6340   -15.8466 N.pl3      1  LIG1  -0.3400
     22 C16       -13.6210    18.5940   -14.7142 C.2        1  LIG1   0.0700
     23 C17       -12.8053    19.6728   -14.7255 C.2        1  LIG1  -0.2300
     24 C18       -13.0613    20.3955   -15.8968 C.2        1  LIG1   0.1000
     25 N5        -13.9935    19.7726   -16.5703 N.2        1  LIG1  -0.2800
     26 N6        -15.6149    16.6620   -15.4440 N.ar       1  LIG1  -0.5800
     27 H2        -16.2937    14.6060   -14.1279 H          1  LIG1   0.4500
     28 H3        -17.4513    14.0394   -15.2058 H          1  LIG1   0.4300
     29 H4        -18.3817    16.3491   -19.1594 H          1  LIG1   0.4200
     30 H5        -17.6711    19.0782   -19.3139 H          1  LIG1   0.1000
     31 H6        -16.4289    18.1262   -20.1618 H          1  LIG1   0.1000
     32 H7        -18.1849    17.0943   -21.5760 H          1  LIG1   0.0900
     33 H8        -19.4272    18.0462   -20.7280 H          1  LIG1   0.0900
     34 H9        -18.7841    19.1257   -22.8659 H          1  LIG1   0.0600
     35 H10       -18.3320    20.1415   -21.4759 H          1  LIG1   0.0600
     36 H11       -15.5161    19.9809   -23.8642 H          1  LIG1   0.0500
     37 H12       -17.2356    20.4143   -24.0177 H          1  LIG1   0.0500
     38 H13       -17.0722    21.7908   -21.9617 H          1  LIG1   0.0800
     39 H14       -15.3526    21.3575   -21.8084 H          1  LIG1   0.0800
     40 H15       -13.7069    22.2324   -23.3676 H          1  LIG1   0.1200
     41 H16       -13.1086    24.0641   -24.9005 H          1  LIG1   0.1200
     42 H17       -14.8686    25.5052   -25.8432 H          1  LIG1   0.1200
     43 H18       -17.2271    25.1142   -25.2535 H          1  LIG1   0.1200
     44 H19       -17.8258    23.2795   -23.7241 H          1  LIG1   0.1200
     45 H20       -15.8388    18.6954   -18.0683 H          1  LIG1   0.1900
     46 H21       -13.6678    17.8379   -13.9445 H          1  LIG1   0.2000
     47 H22       -12.0837    19.9313   -13.9647 H          1  LIG1   0.1700
     48 H23       -12.5700    21.3099   -16.1952 H          1  LIG1   0.2100
@<TRIPOS>BOND
     1    1    2 1
     2    1   27 1
     3    1   28 1
     4    2   26 ar
     5    2    3 ar
     6    3    4 1
     7    3    5 ar
     8    5    6 1
     9    5   19 ar
    10    6    7 1
    11    6   29 1
    12    7    8 1
    13    7   30 1
    14    7   31 1
    15    8    9 1
    16    8   32 1
    17    8   33 1
    18    9   10 1
    19    9   34 1
    20    9   35 1
    21   10   11 1
    22   11   12 1
    23   11   36 1
    24   11   37 1
    25   12   13 1
    26   12   38 1
    27   12   39 1
    28   13   18 ar
    29   13   14 ar
    30   14   15 ar
    31   14   40 1
    32   15   16 ar
    33   15   41 1
    34   16   17 ar
    35   16   42 1
    36   17   18 ar
    37   17   43 1
    38   18   44 1
    39   19   20 ar
    40   19   45 1
    41   20   21 1
    42   20   26 ar
    43   21   25 1
    44   21   22 1
    45   22   23 2
    46   22   46 1
    47   23   24 1
    48   23   47 1
    49   24   25 2
    50   24   48 1
##########                 Name:     ZINC000644657555
##########          Protonation:                 none
##########               SMILES:   CC[C@@H]1CCC[C@@H]1C[NH2+]C[C@@H](O)CN1C(=O)C2=CC=CC=C2C1=O
##########            Long Name:   NO_LONG_NAME
##########          FlexRecCode: 1
##########               Number:                 1908
##########   Ligand Source File: /nfs/db/export/3D/EE/ADRO/EEADRO.xaat.db2.gz
##########                 Rank:                    1
##########               Setnum:                  118
##########             Matchnum:                    1
##########                Cloud:                    1
##########        Electrostatic:           -38.746471
##########                 Gist:             0.000000
##########        Van der Waals:           -32.689705
##########  Ligand Polar Desolv:            14.569738
########## Ligand Apolar Desolv:            -3.990737
##########      Internal Energy:             0.000000
##########      Receptor Energy:             0.000000
########## Receptor Desolvation:             0.000000
########## Receptor Hydrophobic:             0.000000
##########         Total Energy:           -60.857170
##########        Ligand Charge:             1.000000
##########            Arbitrary:    +999.9990
##########        Ligand Energy:             0.000000

@<TRIPOS>MOLECULE
 ZINC000644657555      none
   51    53     0     0     0



@<TRIPOS>ATOM
      1 C1        -21.1701    19.3544   -22.1104 C.3        1  LIG1  -0.1600
      2 C2        -20.4581    18.6210   -20.9719 C.3        1  LIG1  -0.1300
      3 C3        -21.2004    17.3198   -20.6607 C.3        1  LIG1  -0.0800
      4 H1        -21.2185    16.6803   -21.5432 H          1  LIG1   0.0900
      5 C4        -22.6407    17.6295   -20.2029 C.3        1  LIG1  -0.1200
      6 C5        -22.9233    16.5784   -19.1010 C.3        1  LIG1  -0.1200
      7 C6        -21.5636    16.4797   -18.3660 C.3        1  LIG1  -0.1400
      8 C7        -20.5149    16.5882   -19.4935 C.3        1  LIG1  -0.1200
      9 H2        -20.2008    15.5930   -19.8082 H          1  LIG1   0.1000
     10 C8        -19.3054    17.3903   -19.0089 C.3        1  LIG1  -0.0100
     11 N1        -18.6613    16.6806   -17.8956 N.4        1  LIG1  -0.5100
     12 H3        -19.3198    16.5745   -17.1385 H          1  LIG1   0.4300
     13 H4        -18.3580    15.7703   -18.2075 H          1  LIG1   0.4300
     14 C9        -17.5000    17.4508   -17.4303 C.3        1  LIG1  -0.0400
     15 C10       -16.8292    16.7117   -16.2708 C.3        1  LIG1   0.0600
     16 H5        -16.2151    17.4097   -15.7017 H          1  LIG1   0.1300
     17 O1        -17.8312    16.1542   -15.4179 O.3        1  LIG1  -0.5500
     18 C11       -15.9476    15.5898   -16.8229 C.3        1  LIG1   0.0800
     19 N2        -15.3053    14.8821   -15.7126 N.am       1  LIG1  -0.5700
     20 C12       -15.4625    13.5717   -15.4527 C.2        1  LIG1   0.5800
     21 O2        -16.1487    12.7996   -16.0914 O.2        1  LIG1  -0.4600
     22 C13       -14.6594    13.2284   -14.2601 C.ar       1  LIG1  -0.1500
     23 C14       -14.4374    12.0623   -13.5460 C.ar       1  LIG1  -0.0400
     24 C15       -13.6019    12.0823   -12.4396 C.ar       1  LIG1  -0.0900
     25 C16       -12.9900    13.2568   -12.0451 C.ar       1  LIG1  -0.0900
     26 C17       -13.2029    14.4317   -12.7501 C.ar       1  LIG1  -0.0400
     27 C18       -14.0352    14.4267   -13.8575 C.ar       1  LIG1  -0.1500
     28 C19       -14.4762    15.4562   -14.8222 C.2        1  LIG1   0.5800
     29 O3        -14.1466    16.6250   -14.8117 O.2        1  LIG1  -0.4600
     30 H6        -20.6413    20.2814   -22.3323 H          1  LIG1   0.0600
     31 H7        -21.1828    18.7221   -22.9980 H          1  LIG1   0.0600
     32 H8        -22.1933    19.5824   -21.8119 H          1  LIG1   0.0600
     33 H9        -19.4348    18.3931   -21.2703 H          1  LIG1   0.0600
     34 H10       -20.4455    19.2534   -20.0842 H          1  LIG1   0.0700
     35 H11       -22.7023    18.6376   -19.7933 H          1  LIG1   0.0700
     36 H12       -23.3384    17.5102   -21.0320 H          1  LIG1   0.0800
     37 H13       -23.7036    16.9279   -18.4249 H          1  LIG1   0.0800
     38 H14       -23.1943    15.6192   -19.5425 H          1  LIG1   0.0800
     39 H15       -21.4513    17.3022   -17.6595 H          1  LIG1   0.0700
     40 H16       -21.4752    15.5214   -17.8542 H          1  LIG1   0.0800
     41 H17       -18.5940    17.5047   -19.8268 H          1  LIG1   0.1400
     42 H18       -19.6330    18.3737   -18.6720 H          1  LIG1   0.1400
     43 H19       -16.7887    17.5652   -18.2484 H          1  LIG1   0.1400
     44 H20       -17.8277    18.4343   -17.0935 H          1  LIG1   0.1500
     45 H21       -18.4159    15.5226   -15.8587 H          1  LIG1   0.3900
     46 H22       -16.5617    14.8918   -17.3919 H          1  LIG1   0.1100
     47 H23       -15.1834    16.0150   -17.4734 H          1  LIG1   0.1200
     48 H24       -14.9132    11.1416   -13.8496 H          1  LIG1   0.1500
     49 H25       -13.4284    11.1738   -11.8822 H          1  LIG1   0.1500
     50 H26       -12.3416    13.2598   -11.1814 H          1  LIG1   0.1500
     51 H27       -12.7218    15.3466   -12.4374 H          1  LIG1   0.1500
@<TRIPOS>BOND
     1    1    2 1
     2    1   30 1
     3    1   31 1
     4    1   32 1
     5    2    3 1
     6    2   33 1
     7    2   34 1
     8    3    4 1
     9    3    8 1
    10    3    5 1
    11    5    6 1
    12    5   35 1
    13    5   36 1
    14    6    7 1
    15    6   37 1
    16    6   38 1
    17    7    8 1
    18    7   39 1
    19    7   40 1
    20    8    9 1
    21    8   10 1
    22   10   11 1
    23   10   41 1
    24   10   42 1
    25   11   12 1
    26   11   13 1
    27   11   14 1
    28   14   15 1
    29   14   43 1
    30   14   44 1
    31   15   16 1
    32   15   17 1
    33   15   18 1
    34   17   45 1
    35   18   19 1
    36   18   46 1
    37   18   47 1
    38   19   28 am
    39   19   20 am
    40   20   21 2
    41   20   22 1
    42   22   27 ar
    43   22   23 ar
    44   23   24 ar
    45   23   48 1
    46   24   25 ar
    47   24   49 1
    48   25   26 ar
    49   25   50 1
    50   26   27 ar
    51   26   51 1
    52   27   28 1
    53   28   29 2
##########                 Name:     ZINC000252868313
##########          Protonation:                 none
##########               SMILES:   O=C(CCC[N@@H+]1C[C@@H]2CC[C@@H](O)[C@H]2C1)C1=CC=C(Br)C=C1
##########            Long Name:   NO_LONG_NAME
##########          FlexRecCode: 1
##########               Number:                 4964
##########   Ligand Source File: /nfs/db/export/3D/FG/ADMO/FGADMO.xamm.db2.gz
##########                 Rank:                    1
##########               Setnum:                  275
##########             Matchnum:                    1
##########                Cloud:                    1
##########        Electrostatic:           -42.134884
##########                 Gist:             0.000000
##########        Van der Waals:           -27.820719
##########  Ligand Polar Desolv:            13.848472
########## Ligand Apolar Desolv:            -4.406063
##########      Internal Energy:             0.000000
##########      Receptor Energy:             0.000000
########## Receptor Desolvation:             0.000000
########## Receptor Hydrophobic:             0.000000
##########         Total Energy:           -60.513195
##########        Ligand Charge:             1.000000
##########            Arbitrary:    +999.9990
##########        Ligand Energy:             0.000000

@<TRIPOS>MOLECULE
 ZINC000252868313      none
   44    46     0     0     0



@<TRIPOS>ATOM
      1 O1        -16.1281    18.5972   -15.7793 O.2        1  LIG1  -0.4400
      2 C1        -15.5381    17.6402   -16.2336 C.2        1  LIG1   0.4000
      3 C2        -15.4684    17.4365   -17.7252 C.3        1  LIG1  -0.1700
      4 C3        -16.6617    16.5944   -18.1813 C.3        1  LIG1  -0.1400
      5 C4        -17.9621    17.3177   -17.8255 C.3        1  LIG1  -0.0100
      6 N1        -19.1077    16.5091   -18.2634 N.4        1  LIG1  -0.4000
      7 H1        -18.9282    15.5332   -18.0801 H          1  LIG1   0.4300
      8 C5        -19.3446    16.7156   -19.7304 C.3        1  LIG1   0.0100
      9 C6        -20.8542    16.6324   -19.8328 C.3        1  LIG1  -0.1300
     10 H2        -21.2016    15.6089   -19.6913 H          1  LIG1   0.1100
     11 C7        -21.6553    17.3369   -20.9095 C.3        1  LIG1  -0.1000
     12 C8        -23.0269    17.5602   -20.1937 C.3        1  LIG1  -0.1600
     13 C9        -22.7090    17.5872   -18.6667 C.3        1  LIG1   0.1300
     14 H3        -23.0929    18.5007   -18.2125 H          1  LIG1   0.0800
     15 O2        -23.2598    16.4381   -18.0199 O.3        1  LIG1  -0.5700
     16 C10       -21.2132    17.5444   -18.5960 C.3        1  LIG1  -0.1300
     17 H4        -20.8270    18.5393   -18.8179 H          1  LIG1   0.1000
     18 C11       -20.3422    16.9429   -17.5363 C.3        1  LIG1   0.0200
     19 C12       -14.8852    16.6811   -15.3292 C.ar       1  LIG1  -0.1700
     20 C13       -15.2668    15.3353   -15.3374 C.ar       1  LIG1  -0.0700
     21 C14       -14.6506    14.4427   -14.4871 C.ar       1  LIG1  -0.1000
     22 C15       -13.6557    14.8752   -13.6258 C.ar       1  LIG1  -0.0600
     23 Br1       -12.8166    13.6425   -12.4630 Br         1  LIG1  -0.0300
     24 C16       -13.2721    16.2063   -13.6123 C.ar       1  LIG1  -0.1000
     25 C17       -13.8756    17.1095   -14.4607 C.ar       1  LIG1  -0.0500
     26 H5        -15.4945    18.4045   -18.2258 H          1  LIG1   0.1100
     27 H6        -14.5421    16.9213   -17.9788 H          1  LIG1   0.1100
     28 H7        -16.6112    16.4470   -19.2602 H          1  LIG1   0.0900
     29 H8        -16.6356    15.6264   -17.6809 H          1  LIG1   0.0900
     30 H9        -18.0125    17.4650   -16.7467 H          1  LIG1   0.1300
     31 H10       -17.9881    18.2856   -18.3260 H          1  LIG1   0.1300
     32 H11       -18.9886    17.6964   -20.0459 H          1  LIG1   0.1300
     33 H12       -18.8727    15.9252   -20.3140 H          1  LIG1   0.1400
     34 H13       -21.1959    18.2884   -21.1775 H          1  LIG1   0.0800
     35 H14       -21.7723    16.7013   -21.7871 H          1  LIG1   0.0900
     36 H15       -23.4631    18.5098   -20.5040 H          1  LIG1   0.0900
     37 H16       -23.7081    16.7404   -20.4217 H          1  LIG1   0.0900
     38 H17       -22.9219    15.5971   -18.3570 H          1  LIG1   0.4000
     39 H18       -20.8389    16.0891   -17.0756 H          1  LIG1   0.1400
     40 H19       -20.0903    17.6891   -16.7828 H          1  LIG1   0.1300
     41 H20       -16.0426    14.9968   -16.0081 H          1  LIG1   0.1400
     42 H21       -14.9444    13.4035   -14.4920 H          1  LIG1   0.1400
     43 H22       -12.4953    16.5364   -12.9384 H          1  LIG1   0.1400
     44 H23       -13.5754    18.1469   -14.4494 H          1  LIG1   0.1400
@<TRIPOS>BOND
     1    1    2 2
     2    2    3 1
     3    2   19 1
     4    3    4 1
     5    3   26 1
     6    3   27 1
     7    4    5 1
     8    4   28 1
     9    4   29 1
    10    5    6 1
    11    5   30 1
    12    5   31 1
    13    6    7 1
    14    6   18 1
    15    6    8 1
    16    8    9 1
    17    8   32 1
    18    8   33 1
    19    9   10 1
    20    9   16 1
    21    9   11 1
    22   11   12 1
    23   11   34 1
    24   11   35 1
    25   12   13 1
    26   12   36 1
    27   12   37 1
    28   13   14 1
    29   13   15 1
    30   13   16 1
    31   15   38 1
    32   16   17 1
    33   16   18 1
    34   18   39 1
    35   18   40 1
    36   19   25 ar
    37   19   20 ar
    38   20   21 ar
    39   20   41 1
    40   21   22 ar
    41   21   42 1
    42   22   23 1
    43   22   24 ar
    44   24   25 ar
    45   24   43 1
    46   25   44 1
##########                 Name:     ZINC000623766642
##########          Protonation:                 none
##########               SMILES:   CC1=CC=CC=C1N1C=C(C[NH2+][C@H]2CCOC[C@H]2O)N=N1
##########            Long Name:   NO_LONG_NAME
##########          FlexRecCode: 1
##########               Number:                 2888
##########   Ligand Source File: /nfs/db/export/3D/CC/ADMO/CCADMO.xaxv.db2.gz
##########                 Rank:                    1
##########               Setnum:                  135
##########             Matchnum:                    1
##########                Cloud:                    1
##########        Electrostatic:           -46.994003
##########                 Gist:             0.000000
##########        Van der Waals:           -27.365417
##########  Ligand Polar Desolv:            15.616592
########## Ligand Apolar Desolv:            -2.206433
##########      Internal Energy:             0.000000
##########      Receptor Energy:             0.000000
########## Receptor Desolvation:             0.000000
########## Receptor Hydrophobic:             0.000000
##########         Total Energy:           -60.949261
##########        Ligand Charge:             1.000000
##########            Arbitrary:    +999.9990
##########        Ligand Energy:             0.000000

@<TRIPOS>MOLECULE
 ZINC000623766642      none
   42    44     0     0     0



@<TRIPOS>ATOM
      1 C1        -16.6724    12.3334   -15.6807 C.3        1  LIG1  -0.1200
      2 C2        -15.7627    12.6475   -14.5210 C.ar       1  LIG1  -0.0500
      3 C3        -15.3762    11.6441   -13.6544 C.ar       1  LIG1  -0.1000
      4 C4        -14.5408    11.9314   -12.5902 C.ar       1  LIG1  -0.0800
      5 C5        -14.0902    13.2231   -12.3906 C.ar       1  LIG1  -0.1100
      6 C6        -14.4740    14.2310   -13.2540 C.ar       1  LIG1  -0.0900
      7 C7        -15.3076    13.9446   -14.3262 C.ar       1  LIG1   0.0800
      8 N1        -15.6984    14.9657   -15.2046 N.pl3      1  LIG1  -0.2200
      9 C8        -16.9760    15.3719   -15.4397 C.2        1  LIG1   0.0000
     10 C9        -16.8897    16.3720   -16.3479 C.2        1  LIG1  -0.1000
     11 C10       -18.0341    17.1562   -16.9365 C.3        1  LIG1   0.1000
     12 N2        -18.5106    16.4875   -18.1546 N.4        1  LIG1  -0.5000
     13 H1        -17.7587    16.4349   -18.8254 H          1  LIG1   0.4300
     14 H2        -18.8235    15.5558   -17.9264 H          1  LIG1   0.4300
     15 C11       -19.6261    17.2519   -18.7285 C.3        1  LIG1   0.0300
     16 H3        -19.4168    18.3186   -18.6478 H          1  LIG1   0.1500
     17 C12       -19.8015    16.8741   -20.2025 C.3        1  LIG1  -0.1800
     18 C13       -21.0142    17.6161   -20.7707 C.3        1  LIG1   0.0600
     19 O1        -22.1738    17.2890   -20.0022 O.3        1  LIG1  -0.3600
     20 C14       -22.0859    17.6624   -18.6256 C.3        1  LIG1   0.0300
     21 C15       -20.9159    16.9240   -17.9698 C.3        1  LIG1   0.0500
     22 H4        -20.8208    17.2415   -16.9315 H          1  LIG1   0.0900
     23 O2        -21.1523    15.5156   -18.0189 O.3        1  LIG1  -0.5700
     24 N3        -15.5893    16.5275   -16.6206 N.2        1  LIG1  -0.2400
     25 N4        -14.9107    15.6854   -15.9249 N.2        1  LIG1  -0.0400
     26 H5        -16.9222    11.2725   -15.6697 H          1  LIG1   0.0900
     27 H6        -17.5855    12.9227   -15.5961 H          1  LIG1   0.0800
     28 H7        -16.1675    12.5782   -16.6152 H          1  LIG1   0.0600
     29 H8        -15.7268    10.6342   -13.8076 H          1  LIG1   0.1400
     30 H9        -14.2402    11.1451   -11.9136 H          1  LIG1   0.1400
     31 H10       -13.4381    13.4445   -11.5588 H          1  LIG1   0.1400
     32 H11       -14.1220    15.2401   -13.0974 H          1  LIG1   0.1300
     33 H12       -17.8761    14.9765   -14.9925 H          1  LIG1   0.2000
     34 H13       -18.8464    17.2131   -16.2119 H          1  LIG1   0.1500
     35 H14       -17.6961    18.1627   -17.1832 H          1  LIG1   0.1500
     36 H15       -18.9081    17.1562   -20.7596 H          1  LIG1   0.1000
     37 H16       -19.9599    15.7991   -20.2866 H          1  LIG1   0.1100
     38 H17       -20.8378    18.6906   -20.7233 H          1  LIG1   0.0700
     39 H18       -21.1694    17.3183   -21.8076 H          1  LIG1   0.1200
     40 H19       -21.9235    18.7376   -18.5503 H          1  LIG1   0.0800
     41 H20       -23.0132    17.3980   -18.1174 H          1  LIG1   0.1200
     42 H21       -20.4469    14.9845   -17.6251 H          1  LIG1   0.4100
@<TRIPOS>BOND
     1    1    2 1
     2    1   26 1
     3    1   27 1
     4    1   28 1
     5    2    7 ar
     6    2    3 ar
     7    3    4 ar
     8    3   29 1
     9    4    5 ar
    10    4   30 1
    11    5    6 ar
    12    5   31 1
    13    6    7 ar
    14    6   32 1
    15    7    8 1
    16    8   25 1
    17    8    9 1
    18    9   10 2
    19    9   33 1
    20   10   11 1
    21   10   24 1
    22   11   12 1
    23   11   34 1
    24   11   35 1
    25   12   13 1
    26   12   14 1
    27   12   15 1
    28   15   16 1
    29   15   21 1
    30   15   17 1
    31   17   18 1
    32   17   36 1
    33   17   37 1
    34   18   19 1
    35   18   38 1
    36   18   39 1
    37   19   20 1
    38   20   21 1
    39   20   40 1
    40   20   41 1
    41   21   22 1
    42   21   23 1
    43   23   42 1
    44   24   25 2
##########                 Name:     ZINC000335525311
##########          Protonation:                 none
##########               SMILES:   C[C@H]1CC[NH2+][C@H](C(=O)Nc2cc(Cl)ccc2O)C1
##########            Long Name:   NO_LONG_NAME
##########          FlexRecCode: 1
##########               Number:                 3879
##########   Ligand Source File: /nfs/db/export/3D/CE/ADRO/CEADRO.xcep.db2.gz
##########                 Rank:                    1
##########               Setnum:                   13
##########             Matchnum:                    1
##########                Cloud:                    1
##########        Electrostatic:           -49.930550
##########                 Gist:             0.000000
##########        Van der Waals:           -25.205919
##########  Ligand Polar Desolv:            15.985053
########## Ligand Apolar Desolv:            -1.357025
##########      Internal Energy:             0.000000
##########      Receptor Energy:             0.000000
########## Receptor Desolvation:             0.000000
########## Receptor Hydrophobic:             0.000000
##########         Total Energy:           -60.508438
##########        Ligand Charge:             1.000000
##########            Arbitrary:    +999.9990
##########        Ligand Energy:             0.000000

@<TRIPOS>MOLECULE
 ZINC000335525311      none
   36    37     0     0     0



@<TRIPOS>ATOM
      1 C1        -14.9587    19.4644   -18.4616 C.3        1  LIG1  -0.1500
      2 C2        -15.7173    18.2978   -17.8254 C.3        1  LIG1  -0.1100
      3 H1        -15.1604    17.9270   -16.9650 H          1  LIG1   0.0900
      4 C3        -17.1014    18.7727   -17.3737 C.3        1  LIG1  -0.1400
      5 C4        -17.8839    17.5841   -16.8111 C.3        1  LIG1  -0.0300
      6 N1        -18.0320    16.5561   -17.8484 N.4        1  LIG1  -0.4900
      7 H2        -18.5938    15.7979   -17.4911 H          1  LIG1   0.4400
      8 H3        -18.4849    16.9574   -18.6558 H          1  LIG1   0.4400
      9 C5        -16.7117    16.0450   -18.2352 C.3        1  LIG1   0.0100
     10 H4        -16.8321    15.2433   -18.9638 H          1  LIG1   0.1700
     11 C6        -16.0029    15.5129   -17.0164 C.2        1  LIG1   0.5100
     12 O1        -14.9418    15.9908   -16.6749 O.2        1  LIG1  -0.5000
     13 N2        -16.5483    14.5058   -16.3058 N.am       1  LIG1  -0.6300
     14 C7        -15.8893    14.0110   -15.1725 C.ar       1  LIG1   0.1100
     15 C8        -15.0892    14.8503   -14.4119 C.ar       1  LIG1  -0.1100
     16 C9        -14.4401    14.3596   -13.2931 C.ar       1  LIG1  -0.0200
     17 Cl1       -13.4392    15.4113   -12.3414 Cl         1  LIG1  -0.0500
     18 C10       -14.5874    13.0326   -12.9309 C.ar       1  LIG1  -0.1000
     19 C11       -15.3836    12.1906   -13.6855 C.ar       1  LIG1  -0.1100
     20 C12       -16.0411    12.6760   -14.8036 C.ar       1  LIG1   0.0900
     21 O2        -16.8242    11.8486   -15.5464 O.3        1  LIG1  -0.4900
     22 C13       -15.8823    17.1735   -18.8519 C.3        1  LIG1  -0.1400
     23 H5        -15.5165    19.8345   -19.3219 H          1  LIG1   0.0700
     24 H6        -14.8443    20.2650   -17.7310 H          1  LIG1   0.0700
     25 H7        -13.9749    19.1246   -18.7854 H          1  LIG1   0.0700
     26 H8        -16.9909    19.5341   -16.6014 H          1  LIG1   0.1100
     27 H9        -17.6381    19.1919   -18.2248 H          1  LIG1   0.0900
     28 H10       -17.3464    17.1660   -15.9600 H          1  LIG1   0.1500
     29 H11       -18.8698    17.9188   -16.4884 H          1  LIG1   0.1400
     30 H12       -17.3968    14.1234   -16.5791 H          1  LIG1   0.4200
     31 H13       -14.9725    15.8865   -14.6931 H          1  LIG1   0.1700
     32 H14       -14.0791    12.6532   -12.0568 H          1  LIG1   0.1500
     33 H15       -15.4960    11.1549   -13.4005 H          1  LIG1   0.1500
     34 H16       -17.2340    12.2763   -16.3108 H          1  LIG1   0.4000
     35 H17       -16.3928    17.5603   -19.7339 H          1  LIG1   0.1100
     36 H18       -14.9021    16.7913   -19.1365 H          1  LIG1   0.1200
@<TRIPOS>BOND
     1    1    2 1
     2    1   23 1
     3    1   24 1
     4    1   25 1
     5    2    3 1
     6    2   22 1
     7    2    4 1
     8    4    5 1
     9    4   26 1
    10    4   27 1
    11    5    6 1
    12    5   28 1
    13    5   29 1
    14    6    7 1
    15    6    8 1
    16    6    9 1
    17    9   10 1
    18    9   11 1
    19    9   22 1
    20   11   12 2
    21   11   13 am
    22   13   14 1
    23   13   30 1
    24   14   20 ar
    25   14   15 ar
    26   15   16 ar
    27   15   31 1
    28   16   17 1
    29   16   18 ar
    30   18   19 ar
    31   18   32 1
    32   19   20 ar
    33   19   33 1
    34   20   21 1
    35   21   34 1
    36   22   35 1
    37   22   36 1
##########                 Name:     ZINC000245955737
##########          Protonation:                 none
##########               SMILES:   CC1=CC=CC(NC(=O)[C@@H](C)[N@H+]2CCC[C@](C)(O)C2)=C1C
##########            Long Name:   NO_LONG_NAME
##########          FlexRecCode: 1
##########               Number:                 1036
##########   Ligand Source File: /nfs/db/export/3D/CE/ADMO/CEADMO.xbiv.db2.gz
##########                 Rank:                    1
##########               Setnum:                   38
##########             Matchnum:                    1
##########                Cloud:                    1
##########        Electrostatic:           -43.795193
##########                 Gist:             0.000000
##########        Van der Waals:           -25.700832
##########  Ligand Polar Desolv:            12.675198
########## Ligand Apolar Desolv:            -3.607315
##########      Internal Energy:             0.000000
##########      Receptor Energy:             0.000000
########## Receptor Desolvation:             0.000000
########## Receptor Hydrophobic:             0.000000
##########         Total Energy:           -60.428143
##########        Ligand Charge:             1.000000
##########            Arbitrary:    +999.9990
##########        Ligand Energy:             0.000000

@<TRIPOS>MOLECULE
 ZINC000245955737      none
   48    49     0     0     0



@<TRIPOS>ATOM
      1 C1        -14.1296    13.0710   -12.9451 C.3        1  LIG1  -0.1200
      2 C2        -14.3589    14.3108   -13.7705 C.ar       1  LIG1  -0.0600
      3 C3        -13.7013    15.4844   -13.4511 C.ar       1  LIG1  -0.1100
      4 C4        -13.9094    16.6245   -14.2058 C.ar       1  LIG1  -0.1000
      5 C5        -14.7747    16.5938   -15.2816 C.ar       1  LIG1  -0.1200
      6 C6        -15.4364    15.4164   -15.6054 C.ar       1  LIG1   0.1200
      7 N1        -16.3135    15.3817   -16.6951 N.am       1  LIG1  -0.6400
      8 C7        -16.1049    16.1892   -17.7538 C.2        1  LIG1   0.5000
      9 O1        -15.1569    16.9458   -17.7620 O.2        1  LIG1  -0.5000
     10 C8        -17.0493    16.1520   -18.9275 C.3        1  LIG1   0.0100
     11 H1        -16.7216    16.8686   -19.6806 H          1  LIG1   0.1600
     12 C9        -17.0577    14.7460   -19.5310 C.3        1  LIG1  -0.1800
     13 N2        -18.4036    16.4998   -18.4774 N.4        1  LIG1  -0.3700
     14 H2        -18.7063    15.8359   -17.7803 H          1  LIG1   0.4400
     15 C10       -18.3933    17.8474   -17.8956 C.3        1  LIG1  -0.0100
     16 C11       -19.7838    18.1830   -17.3518 C.3        1  LIG1  -0.1400
     17 C12       -20.8005    18.1269   -18.4956 C.3        1  LIG1  -0.1600
     18 C13       -20.7496    16.7400   -19.1431 C.3        1  LIG1   0.1200
     19 C14       -21.7057    16.6982   -20.3368 C.3        1  LIG1  -0.1800
     20 O2        -21.1377    15.7522   -18.1861 O.3        1  LIG1  -0.5700
     21 C15       -19.3231    16.4596   -19.6208 C.3        1  LIG1   0.0000
     22 C16       -15.2213    14.2720   -14.8487 C.ar       1  LIG1  -0.1000
     23 C17       -15.9372    12.9923   -15.1965 C.3        1  LIG1  -0.1200
     24 H3        -13.4239    13.2928   -12.1446 H          1  LIG1   0.0800
     25 H4        -15.0751    12.7408   -12.5147 H          1  LIG1   0.0700
     26 H5        -13.7238    12.2824   -13.5789 H          1  LIG1   0.0700
     27 H6        -13.0242    15.5110   -12.6102 H          1  LIG1   0.1300
     28 H7        -13.3949    17.5399   -13.9533 H          1  LIG1   0.1300
     29 H8        -14.9371    17.4845   -15.8703 H          1  LIG1   0.1400
     30 H9        -17.0716    14.7767   -16.6885 H          1  LIG1   0.4200
     31 H10       -17.7409    14.7191   -20.3799 H          1  LIG1   0.0900
     32 H11       -16.0527    14.4880   -19.8651 H          1  LIG1   0.1000
     33 H12       -17.3855    14.0294   -18.7781 H          1  LIG1   0.1100
     34 H13       -17.6671    17.8866   -17.0838 H          1  LIG1   0.1400
     35 H14       -18.1190    18.5717   -18.6626 H          1  LIG1   0.1300
     36 H15       -20.0588    17.4594   -16.5845 H          1  LIG1   0.1000
     37 H16       -19.7744    19.1845   -16.9219 H          1  LIG1   0.1100
     38 H17       -21.8009    18.3096   -18.1034 H          1  LIG1   0.1000
     39 H18       -20.5549    18.8854   -19.2390 H          1  LIG1   0.0900
     40 H19       -21.6691    15.7109   -20.7972 H          1  LIG1   0.0800
     41 H20       -22.7209    16.9030   -19.9966 H          1  LIG1   0.0800
     42 H21       -21.4084    17.4508   -21.0671 H          1  LIG1   0.0800
     43 H22       -21.1285    14.8479   -18.5284 H          1  LIG1   0.4100
     44 H23       -19.0301    17.2140   -20.3510 H          1  LIG1   0.1400
     45 H24       -19.2825    15.4731   -20.0827 H          1  LIG1   0.1400
     46 H25       -16.5687    13.1551   -16.0699 H          1  LIG1   0.0800
     47 H26       -15.2055    12.2150   -15.4167 H          1  LIG1   0.0800
     48 H27       -16.5552    12.6812   -14.3542 H          1  LIG1   0.0600
@<TRIPOS>BOND
     1    1    2 1
     2    1   24 1
     3    1   25 1
     4    1   26 1
     5    2   22 ar
     6    2    3 ar
     7    3    4 ar
     8    3   27 1
     9    4    5 ar
    10    4   28 1
    11    5    6 ar
    12    5   29 1
    13    6    7 1
    14    6   22 ar
    15    7    8 am
    16    7   30 1
    17    8    9 2
    18    8   10 1
    19   10   11 1
    20   10   12 1
    21   10   13 1
    22   12   31 1
    23   12   32 1
    24   12   33 1
    25   13   14 1
    26   13   21 1
    27   13   15 1
    28   15   16 1
    29   15   34 1
    30   15   35 1
    31   16   17 1
    32   16   36 1
    33   16   37 1
    34   17   18 1
    35   17   38 1
    36   17   39 1
    37   18   19 1
    38   18   20 1
    39   18   21 1
    40   19   40 1
    41   19   41 1
    42   19   42 1
    43   20   43 1
    44   21   44 1
    45   21   45 1
    46   22   23 1
    47   23   46 1
    48   23   47 1
    49   23   48 1
##########                 Name:     ZINC000359539066
##########          Protonation:                 none
##########               SMILES:   C[C@@H]1CC[C@@]2(CC[N@H+](CC(=O)NC3=CC=C(F)C(F)=C3)C2)C1
##########            Long Name:   NO_LONG_NAME
##########          FlexRecCode: 1
##########               Number:                 6286
##########   Ligand Source File: /nfs/db/export/3D/DG/ADRO/DGADRO.xban.db2.gz
##########                 Rank:                    1
##########               Setnum:                  200
##########             Matchnum:                    1
##########                Cloud:                    1
##########        Electrostatic:           -51.168877
##########                 Gist:             0.000000
##########        Van der Waals:           -24.698298
##########  Ligand Polar Desolv:            20.886162
########## Ligand Apolar Desolv:            -5.572356
##########      Internal Energy:             0.000000
##########      Receptor Energy:             0.000000
########## Receptor Desolvation:             0.000000
########## Receptor Hydrophobic:             0.000000
##########         Total Energy:           -60.553368
##########        Ligand Charge:             1.000000
##########            Arbitrary:    +999.9990
##########        Ligand Energy:             0.000000

@<TRIPOS>MOLECULE
 ZINC000359539066      none
   45    47     0     0     0



@<TRIPOS>ATOM
      1 C1        -23.0372    15.5931   -18.9660 C.3        1  LIG1  -0.1500
      2 C2        -22.3790    16.9642   -18.9478 C.3        1  LIG1  -0.0900
      3 H1        -23.1481    17.7183   -18.5834 H          1  LIG1   0.0800
      4 C3        -21.8850    17.3967   -20.3293 C.3        1  LIG1  -0.1300
      5 C4        -20.7229    18.3269   -20.0194 C.3        1  LIG1  -0.1100
      6 C5        -20.0025    17.6164   -18.8756 C.3        1  LIG1  -0.0800
      7 C6        -19.0549    18.5152   -18.0892 C.3        1  LIG1  -0.1300
      8 C7        -18.1603    17.5515   -17.3272 C.3        1  LIG1  -0.0100
      9 N1        -18.1290    16.2958   -18.1772 N.4        1  LIG1  -0.3900
     10 H2        -18.5655    15.5147   -17.5970 H          1  LIG1   0.4300
     11 C8        -16.7556    15.8434   -18.5568 C.3        1  LIG1  -0.0200
     12 C9        -15.9604    15.5515   -17.3104 C.2        1  LIG1   0.5000
     13 O1        -14.9377    16.1639   -17.0863 O.2        1  LIG1  -0.5100
     14 N2        -16.3856    14.6101   -16.4448 N.am       1  LIG1  -0.6400
     15 C10       -15.6468    14.3389   -15.2867 C.ar       1  LIG1   0.1400
     16 C11       -15.6572    13.0635   -14.7386 C.ar       1  LIG1  -0.1100
     17 C12       -14.9279    12.7968   -13.5956 C.ar       1  LIG1  -0.1000
     18 C13       -14.1870    13.8001   -12.9960 C.ar       1  LIG1   0.0700
     19 F1        -13.4750    13.5370   -11.8784 F          1  LIG1  -0.1200
     20 C14       -14.1742    15.0754   -13.5416 C.ar       1  LIG1   0.0900
     21 F2        -13.4497    16.0535   -12.9555 F          1  LIG1  -0.1200
     22 C15       -14.8984    15.3440   -14.6885 C.ar       1  LIG1  -0.1300
     23 C16       -19.0448    16.5266   -19.3645 C.3        1  LIG1   0.0100
     24 C17       -21.1493    17.0320   -18.0220 C.3        1  LIG1  -0.1200
     25 H3        -22.3190    14.8499   -19.3125 H          1  LIG1   0.0600
     26 H4        -23.3691    15.3360   -17.9600 H          1  LIG1   0.0600
     27 H5        -23.8949    15.6107   -19.6382 H          1  LIG1   0.0600
     28 H6        -21.5475    16.5319   -20.9060 H          1  LIG1   0.0700
     29 H7        -22.6723    17.9259   -20.8720 H          1  LIG1   0.0800
     30 H8        -20.0648    18.4180   -20.8722 H          1  LIG1   0.0800
     31 H9        -21.0801    19.2923   -19.6896 H          1  LIG1   0.0800
     32 H10       -18.4678    19.1353   -18.7718 H          1  LIG1   0.1100
     33 H11       -19.6194    19.1500   -17.4009 H          1  LIG1   0.1000
     34 H12       -17.1473    17.9426   -17.2259 H          1  LIG1   0.1300
     35 H13       -18.5746    17.3123   -16.3473 H          1  LIG1   0.1500
     36 H14       -16.8252    14.9402   -19.1630 H          1  LIG1   0.1600
     37 H15       -16.2598    16.6276   -19.1289 H          1  LIG1   0.1600
     38 H16       -17.2035    14.1204   -16.6241 H          1  LIG1   0.4300
     39 H17       -16.2356    12.2799   -15.2052 H          1  LIG1   0.1500
     40 H18       -14.9363    11.8044   -13.1697 H          1  LIG1   0.1600
     41 H19       -14.8888    16.3368   -15.1138 H          1  LIG1   0.1600
     42 H20       -19.5803    15.6130   -19.5965 H          1  LIG1   0.1400
     43 H21       -18.4641    16.8708   -20.2129 H          1  LIG1   0.1400
     44 H22       -21.3434    17.6824   -17.1570 H          1  LIG1   0.0800
     45 H23       -20.8792    16.0278   -17.6657 H          1  LIG1   0.0800
@<TRIPOS>BOND
     1    1    2 1
     2    1   25 1
     3    1   26 1
     4    1   27 1
     5    2    3 1
     6    2   24 1
     7    2    4 1
     8    4    5 1
     9    4   28 1
    10    4   29 1
    11    5    6 1
    12    5   30 1
    13    5   31 1
    14    6   23 1
    15    6    7 1
    16    6   24 1
    17    7    8 1
    18    7   32 1
    19    7   33 1
    20    8    9 1
    21    8   34 1
    22    8   35 1
    23    9   10 1
    24    9   11 1
    25    9   23 1
    26   11   12 1
    27   11   36 1
    28   11   37 1
    29   12   13 2
    30   12   14 am
    31   14   15 1
    32   14   38 1
    33   15   22 ar
    34   15   16 ar
    35   16   17 ar
    36   16   39 1
    37   17   18 ar
    38   17   40 1
    39   18   19 1
    40   18   20 ar
    41   20   21 1
    42   20   22 ar
    43   22   41 1
    44   23   42 1
    45   23   43 1
    46   24   44 1
    47   24   45 1
##########                 Name:     ZINC000157884178
##########          Protonation:                 none
##########               SMILES:   CC[N@@H+](CC1CC1)[C@H](C)C(=O)NC1=CC=C(SC)C=C1
##########            Long Name:   NO_LONG_NAME
##########          FlexRecCode: 1
##########               Number:                11459
##########   Ligand Source File: /nfs/db/export/3D/CG/ADMO/CGADMO.xabr.db2.gz
##########                 Rank:                    1
##########               Setnum:                  164
##########             Matchnum:                    1
##########                Cloud:                    1
##########        Electrostatic:           -45.987206
##########                 Gist:             0.000000
##########        Van der Waals:           -22.987169
##########  Ligand Polar Desolv:            13.487545
########## Ligand Apolar Desolv:            -5.559592
##########      Internal Energy:             0.000000
##########      Receptor Energy:             0.000000
########## Receptor Desolvation:             0.000000
########## Receptor Hydrophobic:             0.000000
##########         Total Energy:           -61.046421
##########        Ligand Charge:             1.000000
##########            Arbitrary:    +999.9990
##########        Ligand Energy:             0.000000

@<TRIPOS>MOLECULE
 ZINC000157884178      none
   45    46     0     0     0



@<TRIPOS>ATOM
      1 C1        -17.9139    18.7441   -17.9393 C.3        1  LIG1  -0.1900
      2 C2        -18.5137    17.4531   -17.3788 C.3        1  LIG1  -0.0200
      3 N1        -18.5285    16.4244   -18.4274 N.4        1  LIG1  -0.3700
      4 H1        -18.9241    15.5728   -18.0578 H          1  LIG1   0.4300
      5 C3        -19.3407    16.8906   -19.5592 C.3        1  LIG1   0.0100
      6 C4        -20.7709    17.1563   -19.0853 C.3        1  LIG1  -0.2100
      7 C5        -21.9093    16.5096   -19.8771 C.3        1  LIG1  -0.1700
      8 C6        -21.5471    15.9810   -18.4877 C.3        1  LIG1  -0.1500
      9 C7        -17.1553    16.1691   -18.8825 C.3        1  LIG1   0.0000
     10 H2        -16.8544    16.9471   -19.5840 H          1  LIG1   0.1600
     11 C8        -17.0924    14.8062   -19.5748 C.3        1  LIG1  -0.1800
     12 C9        -16.2244    16.1739   -17.6973 C.2        1  LIG1   0.5100
     13 O1        -15.3127    16.9723   -17.6454 O.2        1  LIG1  -0.5100
     14 N2        -16.4049    15.2909   -16.6952 N.am       1  LIG1  -0.6400
     15 C10       -15.5391    15.2953   -15.5930 C.ar       1  LIG1   0.1100
     16 C11       -15.2791    14.1146   -14.9099 C.ar       1  LIG1  -0.1100
     17 C12       -14.4269    14.1186   -13.8240 C.ar       1  LIG1  -0.0800
     18 C13       -13.8288    15.3042   -13.4148 C.ar       1  LIG1  -0.0800
     19 S1        -12.7404    15.3097   -12.0291 S.3        1  LIG1  -0.1000
     20 C14       -12.0193    13.6457   -12.0700 C.3        1  LIG1  -0.1500
     21 C15       -14.0889    16.4853   -14.0989 C.ar       1  LIG1  -0.1200
     22 C16       -14.9373    16.4794   -15.1879 C.ar       1  LIG1  -0.0900
     23 H3        -17.9028    19.5074   -17.1613 H          1  LIG1   0.1100
     24 H4        -16.8950    18.5547   -18.2770 H          1  LIG1   0.0700
     25 H5        -18.5165    19.0900   -18.7791 H          1  LIG1   0.0800
     26 H6        -17.9110    17.1071   -16.5390 H          1  LIG1   0.1400
     27 H7        -19.5326    17.6423   -17.0412 H          1  LIG1   0.1400
     28 H8        -18.9134    17.8104   -19.9586 H          1  LIG1   0.1400
     29 H9        -19.3516    16.1273   -20.3373 H          1  LIG1   0.1400
     30 H10       -20.9500    18.1447   -18.6622 H          1  LIG1   0.1300
     31 H11       -22.8374    17.0725   -19.9752 H          1  LIG1   0.1100
     32 H12       -21.6391    15.8947   -20.7356 H          1  LIG1   0.1100
     33 H13       -21.0387    15.0183   -18.4322 H          1  LIG1   0.1100
     34 H14       -22.2371    16.1962   -17.6718 H          1  LIG1   0.1100
     35 H15       -16.0735    14.6168   -19.9124 H          1  LIG1   0.0900
     36 H16       -17.3933    14.0281   -18.8733 H          1  LIG1   0.1000
     37 H17       -17.7658    14.8027   -20.4319 H          1  LIG1   0.1100
     38 H18       -17.1339    14.6524   -16.7367 H          1  LIG1   0.4200
     39 H19       -15.7440    13.1932   -15.2280 H          1  LIG1   0.1400
     40 H20       -14.2252    13.2004   -13.2923 H          1  LIG1   0.1400
     41 H21       -11.3176    13.5334   -11.2436 H          1  LIG1   0.1100
     42 H22       -12.8122    12.9036   -11.9770 H          1  LIG1   0.0900
     43 H23       -11.4945    13.5003   -13.0143 H          1  LIG1   0.0900
     44 H24       -13.6246    17.4071   -13.7809 H          1  LIG1   0.1300
     45 H25       -15.1392    17.3973   -15.7199 H          1  LIG1   0.1300
@<TRIPOS>BOND
     1    1    2 1
     2    1   23 1
     3    1   24 1
     4    1   25 1
     5    2    3 1
     6    2   26 1
     7    2   27 1
     8    3    4 1
     9    3    5 1
    10    3    9 1
    11    5    6 1
    12    5   28 1
    13    5   29 1
    14    6    8 1
    15    6    7 1
    16    6   30 1
    17    7    8 1
    18    7   31 1
    19    7   32 1
    20    8   33 1
    21    8   34 1
    22    9   10 1
    23    9   11 1
    24    9   12 1
    25   11   35 1
    26   11   36 1
    27   11   37 1
    28   12   13 2
    29   12   14 am
    30   14   15 1
    31   14   38 1
    32   15   22 ar
    33   15   16 ar
    34   16   17 ar
    35   16   39 1
    36   17   18 ar
    37   17   40 1
    38   18   19 1
    39   18   21 ar
    40   19   20 1
    41   20   41 1
    42   20   42 1
    43   20   43 1
    44   21   22 ar
    45   21   44 1
    46   22   45 1
##########                 Name:     ZINC000093610704
##########          Protonation:                 none
##########               SMILES:   COC(=O)C[C@H]1CSCC[N@H+]1C/C(C)=C/C1=CC=CC=C1
##########            Long Name:   NO_LONG_NAME
##########          FlexRecCode: 1
##########               Number:                 2118
##########   Ligand Source File: /nfs/db/export/3D/DG/ADMO/DGADMO.xaan.db2.gz
##########                 Rank:                    1
##########               Setnum:                   37
##########             Matchnum:                    1
##########                Cloud:                    1
##########        Electrostatic:           -39.864513
##########                 Gist:             0.000000
##########        Van der Waals:           -27.182188
##########  Ligand Polar Desolv:            13.036988
########## Ligand Apolar Desolv:            -6.355704
##########      Internal Energy:             0.000000
##########      Receptor Energy:             0.000000
########## Receptor Desolvation:             0.000000
########## Receptor Hydrophobic:             0.000000
##########         Total Energy:           -60.365417
##########        Ligand Charge:             1.000000
##########            Arbitrary:    +999.9990
##########        Ligand Energy:             0.000000

@<TRIPOS>MOLECULE
 ZINC000093610704      none
   45    46     0     0     0



@<TRIPOS>ATOM
      1 C1        -22.9772    18.2112   -20.2232 C.3        1  LIG1   0.0300
      2 O1        -22.0259    18.1162   -19.1304 O.3        1  LIG1  -0.3400
      3 C2        -20.7926    17.6810   -19.4323 C.2        1  LIG1   0.4600
      4 O2        -20.5171    17.3891   -20.5720 O.2        1  LIG1  -0.5200
      5 C3        -19.7514    17.5566   -18.3501 C.3        1  LIG1  -0.1400
      6 C4        -18.4465    17.0441   -18.9553 C.3        1  LIG1   0.0400
      7 H1        -18.6949    16.2586   -19.7112 H          1  LIG1   0.1600
      8 C5        -17.6674    18.1596   -19.6500 C.3        1  LIG1  -0.1300
      9 S1        -16.1958    17.5288   -20.5096 S.3        1  LIG1  -0.1700
     10 C6        -15.4323    16.6332   -19.1285 C.3        1  LIG1  -0.1400
     11 C7        -16.3980    15.6563   -18.4785 C.3        1  LIG1  -0.0100
     12 N1        -17.6039    16.3569   -17.8883 N.4        1  LIG1  -0.3800
     13 H2        -18.2261    15.5464   -17.5358 H          1  LIG1   0.4300
     14 C8        -17.2656    17.1777   -16.6691 C.3        1  LIG1   0.0100
     15 C9        -16.8819    16.2606   -15.5366 C.2        1  LIG1  -0.2000
     16 C10       -17.9373    15.7503   -14.5896 C.3        1  LIG1  -0.1300
     17 C11       -15.6159    15.9027   -15.3734 C.2        1  LIG1  -0.0300
     18 C12       -15.2612    14.8780   -14.3689 C.ar       1  LIG1  -0.0900
     19 C13       -14.3976    15.1949   -13.3197 C.ar       1  LIG1  -0.0900
     20 C14       -14.0704    14.2338   -12.3853 C.ar       1  LIG1  -0.1200
     21 C15       -14.5964    12.9584   -12.4872 C.ar       1  LIG1  -0.1000
     22 C16       -15.4528    12.6377   -13.5252 C.ar       1  LIG1  -0.1200
     23 C17       -15.7932    13.5914   -14.4624 C.ar       1  LIG1  -0.1000
     24 H3        -23.9321    18.5747   -19.8433 H          1  LIG1   0.0700
     25 H4        -22.5985    18.9031   -20.9756 H          1  LIG1   0.1200
     26 H5        -23.1154    17.2273   -20.6714 H          1  LIG1   0.0700
     27 H6        -19.5823    18.5323   -17.8947 H          1  LIG1   0.1600
     28 H7        -20.0990    16.8565   -17.5903 H          1  LIG1   0.1300
     29 H8        -18.3295    18.6690   -20.3766 H          1  LIG1   0.1600
     30 H9        -17.3613    18.9132   -18.8986 H          1  LIG1   0.1200
     31 H10       -14.5422    16.0824   -19.4936 H          1  LIG1   0.1600
     32 H11       -15.0778    17.3595   -18.3695 H          1  LIG1   0.1100
     33 H12       -16.7585    14.9313   -19.2165 H          1  LIG1   0.1500
     34 H13       -15.8993    15.1108   -17.6700 H          1  LIG1   0.1400
     35 H14       -16.4317    17.8413   -16.8977 H          1  LIG1   0.1400
     36 H15       -18.1327    17.7709   -16.3783 H          1  LIG1   0.1400
     37 H16       -17.4739    15.1060   -13.8425 H          1  LIG1   0.0700
     38 H17       -18.4190    16.5932   -14.0940 H          1  LIG1   0.0900
     39 H18       -18.6821    15.1826   -15.1472 H          1  LIG1   0.0700
     40 H19       -14.8438    16.3597   -15.9744 H          1  LIG1   0.1300
     41 H20       -13.9859    16.1901   -13.2394 H          1  LIG1   0.1300
     42 H21       -13.4021    14.4778   -11.5727 H          1  LIG1   0.1300
     43 H22       -14.3369    12.2095   -11.7534 H          1  LIG1   0.1300
     44 H23       -15.8594    11.6399   -13.5996 H          1  LIG1   0.1300
     45 H24       -16.4620    13.3400   -15.2721 H          1  LIG1   0.1200
@<TRIPOS>BOND
     1    1    2 1
     2    1   24 1
     3    1   25 1
     4    1   26 1
     5    2    3 1
     6    3    4 2
     7    3    5 1
     8    5    6 1
     9    5   27 1
    10    5   28 1
    11    6    7 1
    12    6   12 1
    13    6    8 1
    14    8    9 1
    15    8   29 1
    16    8   30 1
    17    9   10 1
    18   10   11 1
    19   10   31 1
    20   10   32 1
    21   11   12 1
    22   11   33 1
    23   11   34 1
    24   12   13 1
    25   12   14 1
    26   14   15 1
    27   14   35 1
    28   14   36 1
    29   15   16 1
    30   15   17 2
    31   16   37 1
    32   16   38 1
    33   16   39 1
    34   17   18 1
    35   17   40 1
    36   18   23 ar
    37   18   19 ar
    38   19   20 ar
    39   19   41 1
    40   20   21 ar
    41   20   42 1
    42   21   22 ar
    43   21   43 1
    44   22   23 ar
    45   22   44 1
    46   23   45 1
##########                 Name:     ZINC000657390213
##########          Protonation:                 none
##########               SMILES:   CC1=C2C=C(C[NH2+]C[C@H](CO)C3=CC=CC=C3)NC2=CC=C1
##########            Long Name:   NO_LONG_NAME
##########          FlexRecCode: 1
##########               Number:                 3589
##########   Ligand Source File: /nfs/db/export/3D/CG/ADRO/CGADRO.xaut.db2.gz
##########                 Rank:                    1
##########               Setnum:                  180
##########             Matchnum:                    1
##########                Cloud:                    1
##########        Electrostatic:           -41.636250
##########                 Gist:             0.000000
##########        Van der Waals:           -29.347395
##########  Ligand Polar Desolv:            14.851810
########## Ligand Apolar Desolv:            -4.262962
##########      Internal Energy:             0.000000
##########      Receptor Energy:             0.000000
########## Receptor Desolvation:             0.000000
########## Receptor Hydrophobic:             0.000000
##########         Total Energy:           -60.394794
##########        Ligand Charge:             1.000000
##########            Arbitrary:    +999.9990
##########        Ligand Energy:             0.000000

@<TRIPOS>MOLECULE
 ZINC000657390213      none
   45    47     0     0     0



@<TRIPOS>ATOM
      1 C1        -13.2585    14.8102   -12.2230 C.3        1  LIG1  -0.1200
      2 C2        -14.1084    13.8947   -13.0661 C.ar       1  LIG1  -0.0200
      3 C3        -14.8691    14.4139   -14.1151 C.ar       1  LIG1  -0.1200
      4 C4        -15.0706    15.7594   -14.6580 C.2        1  LIG1  -0.1200
      5 C5        -15.9270    15.6439   -15.6852 C.2        1  LIG1  -0.0200
      6 C6        -16.4154    16.7872   -16.5370 C.3        1  LIG1   0.0700
      7 N1        -17.3385    16.2765   -17.5593 N.4        1  LIG1  -0.5100
      8 H1        -16.8588    15.6052   -18.1402 H          1  LIG1   0.4300
      9 H2        -18.1250    15.8317   -17.1104 H          1  LIG1   0.4200
     10 C7        -17.8143    17.3908   -18.3899 C.3        1  LIG1   0.0000
     11 C8        -18.7757    16.8590   -19.4546 C.3        1  LIG1  -0.0600
     12 H3        -19.6255    16.3787   -18.9695 H          1  LIG1   0.1100
     13 C9        -18.0486    15.8408   -20.3353 C.3        1  LIG1   0.0600
     14 O1        -17.5858    14.7569   -19.5273 O.3        1  LIG1  -0.6000
     15 C10       -19.2639    18.0022   -20.3067 C.ar       1  LIG1  -0.1100
     16 C11       -20.4046    18.6949   -19.9461 C.ar       1  LIG1  -0.1100
     17 C12       -20.8526    19.7435   -20.7275 C.ar       1  LIG1  -0.1100
     18 C13       -20.1596    20.0997   -21.8692 C.ar       1  LIG1  -0.1000
     19 C14       -19.0184    19.4076   -22.2294 C.ar       1  LIG1  -0.1100
     20 C15       -18.5681    18.3618   -21.4457 C.ar       1  LIG1  -0.1000
     21 N2        -16.2905    14.3344   -15.8447 N.pl3      1  LIG1  -0.5900
     22 C16       -15.6608    13.5554   -14.8999 C.ar       1  LIG1   0.1200
     23 C17       -15.6745    12.1935   -14.6180 C.ar       1  LIG1  -0.1400
     24 C18       -14.9160    11.7023   -13.5778 C.ar       1  LIG1  -0.0700
     25 C19       -14.1326    12.5525   -12.8099 C.ar       1  LIG1  -0.1400
     26 H4        -13.3686    15.8356   -12.5760 H          1  LIG1   0.0800
     27 H5        -13.5785    14.7477   -11.1830 H          1  LIG1   0.0700
     28 H6        -12.2136    14.5097   -12.3005 H          1  LIG1   0.0700
     29 H7        -14.6166    16.6715   -14.2995 H          1  LIG1   0.1600
     30 H8        -16.9335    17.5123   -15.9094 H          1  LIG1   0.1400
     31 H9        -15.5658    17.2677   -17.0219 H          1  LIG1   0.1500
     32 H10       -18.3323    18.1162   -17.7624 H          1  LIG1   0.1300
     33 H11       -16.9647    17.8713   -18.8748 H          1  LIG1   0.1300
     34 H12       -18.7336    15.4620   -21.0938 H          1  LIG1   0.0800
     35 H13       -17.1989    16.3211   -20.8203 H          1  LIG1   0.0700
     36 H14       -18.2903    14.2826   -19.0646 H          1  LIG1   0.4100
     37 H15       -20.9461    18.4164   -19.0540 H          1  LIG1   0.1200
     38 H16       -21.7442    20.2842   -20.4461 H          1  LIG1   0.1300
     39 H17       -20.5099    20.9185   -22.4801 H          1  LIG1   0.1300
     40 H18       -18.4771    19.6858   -23.1216 H          1  LIG1   0.1300
     41 H19       -17.6766    17.8211   -21.7270 H          1  LIG1   0.1300
     42 H20       -16.9010    14.0042   -16.5223 H          1  LIG1   0.4200
     43 H21       -16.2780    11.5233   -15.2121 H          1  LIG1   0.1300
     44 H22       -14.9280    10.6445   -13.3605 H          1  LIG1   0.1400
     45 H23       -13.5439    12.1514   -11.9981 H          1  LIG1   0.1300
@<TRIPOS>BOND
     1    1    2 1
     2    1   26 1
     3    1   27 1
     4    1   28 1
     5    2   25 ar
     6    2    3 ar
     7    3   22 ar
     8    3    4 1
     9    4    5 2
    10    4   29 1
    11    5    6 1
    12    5   21 1
    13    6    7 1
    14    6   30 1
    15    6   31 1
    16    7    8 1
    17    7    9 1
    18    7   10 1
    19   10   11 1
    20   10   32 1
    21   10   33 1
    22   11   12 1
    23   11   13 1
    24   11   15 1
    25   13   14 1
    26   13   34 1
    27   13   35 1
    28   14   36 1
    29   15   20 ar
    30   15   16 ar
    31   16   17 ar
    32   16   37 1
    33   17   18 ar
    34   17   38 1
    35   18   19 ar
    36   18   39 1
    37   19   20 ar
    38   19   40 1
    39   20   41 1
    40   21   22 1
    41   21   42 1
    42   22   23 ar
    43   23   24 ar
    44   23   43 1
    45   24   25 ar
    46   24   44 1
    47   25   45 1
##########                 Name:     ZINC000126884598
##########          Protonation:                 none
##########               SMILES:   CC[C@H](C)[C@@H](O)C[NH2+][C@H]1C[C@@](C#N)(c2ccccc2)C1
##########            Long Name:   NO_LONG_NAME
##########          FlexRecCode: 1
##########               Number:                 5698
##########   Ligand Source File: /nfs/db/export/3D/CF/EDRO/CFEDRO.xdy.db2.gz
##########                 Rank:                    1
##########               Setnum:                  150
##########             Matchnum:                    1
##########                Cloud:                    1
##########        Electrostatic:           -48.404179
##########                 Gist:             0.000000
##########        Van der Waals:           -25.571125
##########  Ligand Polar Desolv:            18.253548
########## Ligand Apolar Desolv:            -4.550095
##########      Internal Energy:             0.000000
##########      Receptor Energy:             0.000000
########## Receptor Desolvation:             0.000000
########## Receptor Hydrophobic:             0.000000
##########         Total Energy:           -60.271851
##########        Ligand Charge:             1.000000
##########            Arbitrary:    +999.9990
##########        Ligand Energy:             0.000000

@<TRIPOS>MOLECULE
 ZINC000126884598      none
   45    46     0     0     0



@<TRIPOS>ATOM
      1 C1        -23.4976    15.6635   -19.2402 C.3        1  LIG1  -0.1600
      2 C2        -23.1137    16.9958   -19.8868 C.3        1  LIG1  -0.1200
      3 C3        -21.9580    17.6267   -19.1076 C.3        1  LIG1  -0.1200
      4 H1        -22.2662    17.7988   -18.0764 H          1  LIG1   0.0900
      5 C4        -21.5740    18.9591   -19.7543 C.3        1  LIG1  -0.1700
      6 C5        -20.7534    16.6836   -19.1291 C.3        1  LIG1   0.0900
      7 H2        -21.0269    15.7344   -18.6685 H          1  LIG1   0.1300
      8 O1        -20.3492    16.4579   -20.4811 O.3        1  LIG1  -0.5500
      9 C6        -19.5977    17.3144   -18.3498 C.3        1  LIG1  -0.0500
     10 N1        -18.4412    16.4089   -18.3706 N.4        1  LIG1  -0.5000
     11 H3        -18.6944    15.5302   -17.9440 H          1  LIG1   0.4300
     12 H4        -18.1558    16.2495   -19.3252 H          1  LIG1   0.4300
     13 C7        -17.3315    17.0145   -17.6223 C.3        1  LIG1  -0.0100
     14 C8        -17.4273    16.8055   -16.1018 C.3        1  LIG1  -0.1300
     15 C9        -15.9068    16.5761   -16.1168 C.3        1  LIG1   0.0800
     16 C10       -15.1226    17.8106   -15.9492 C.1        1  LIG1   0.2000
     17 N2        -14.5173    18.7632   -15.8197 N.1        1  LIG1  -0.3800
     18 C11       -15.4546    15.4668   -15.2025 C.ar       1  LIG1  -0.1000
     19 C12       -15.9251    14.1807   -15.3909 C.ar       1  LIG1  -0.1000
     20 C13       -15.5103    13.1631   -14.5523 C.ar       1  LIG1  -0.1100
     21 C14       -14.6246    13.4316   -13.5254 C.ar       1  LIG1  -0.1000
     22 C15       -14.1534    14.7175   -13.3375 C.ar       1  LIG1  -0.1100
     23 C16       -14.5649    15.7343   -14.1789 C.ar       1  LIG1  -0.1000
     24 C17       -16.0659    16.1419   -17.5833 C.3        1  LIG1  -0.1300
     25 H5        -24.3210    15.2140   -19.7953 H          1  LIG1   0.0600
     26 H6        -22.6395    14.9915   -19.2556 H          1  LIG1   0.0600
     27 H7        -23.8058    15.8356   -18.2089 H          1  LIG1   0.0600
     28 H8        -22.8054    16.8236   -20.9181 H          1  LIG1   0.0700
     29 H9        -23.9718    17.6677   -19.8714 H          1  LIG1   0.0700
     30 H10       -20.7506    19.4084   -19.1991 H          1  LIG1   0.0800
     31 H11       -21.2656    18.7870   -20.7855 H          1  LIG1   0.0600
     32 H12       -22.4321    19.6311   -19.7389 H          1  LIG1   0.0600
     33 H13       -19.5887    15.8675   -20.5709 H          1  LIG1   0.3900
     34 H14       -19.3242    18.2635   -18.8107 H          1  LIG1   0.1400
     35 H15       -19.9060    17.4865   -17.3186 H          1  LIG1   0.1400
     36 H16       -17.1406    18.0481   -17.9111 H          1  LIG1   0.1700
     37 H17       -17.7287    17.6998   -15.5563 H          1  LIG1   0.1100
     38 H18       -17.9993    15.9223   -15.8176 H          1  LIG1   0.1300
     39 H19       -16.6170    13.9710   -16.1932 H          1  LIG1   0.1300
     40 H20       -15.8784    12.1584   -14.6990 H          1  LIG1   0.1300
     41 H21       -14.3010    12.6367   -12.8697 H          1  LIG1   0.1300
     42 H22       -13.4617    14.9273   -12.5351 H          1  LIG1   0.1300
     43 H23       -14.1968    16.7389   -14.0321 H          1  LIG1   0.1300
     44 H24       -16.2658    15.0772   -17.7043 H          1  LIG1   0.1300
     45 H25       -15.2682    16.5003   -18.2340 H          1  LIG1   0.1200
@<TRIPOS>BOND
     1    1    2 1
     2    1   25 1
     3    1   26 1
     4    1   27 1
     5    2    3 1
     6    2   28 1
     7    2   29 1
     8    3    4 1
     9    3    5 1
    10    3    6 1
    11    5   30 1
    12    5   31 1
    13    5   32 1
    14    6    7 1
    15    6    8 1
    16    6    9 1
    17    8   33 1
    18    9   10 1
    19    9   34 1
    20    9   35 1
    21   10   11 1
    22   10   12 1
    23   10   13 1
    24   13   24 1
    25   13   14 1
    26   13   36 1
    27   14   15 1
    28   14   37 1
    29   14   38 1
    30   15   16 1
    31   15   18 1
    32   15   24 1
    33   16   17 3
    34   18   23 ar
    35   18   19 ar
    36   19   20 ar
    37   19   39 1
    38   20   21 ar
    39   20   40 1
    40   21   22 ar
    41   21   41 1
    42   22   23 ar
    43   22   42 1
    44   23   43 1
    45   24   44 1
    46   24   45 1
##########                 Name:     ZINC000441034869
##########          Protonation:                 none
##########               SMILES:   C[C@H]([C@@H]1CC2=CC=CC=C2O1)[N@H+](C)CC(=O)NC1=CC=CC(F)=C1
##########            Long Name:   NO_LONG_NAME
##########          FlexRecCode: 1
##########               Number:                10772
##########   Ligand Source File: /nfs/db/export/3D/EG/ADMO/EGADMO.xbmt.db2.gz
##########                 Rank:                    1
##########               Setnum:                   44
##########             Matchnum:                    1
##########                Cloud:                    1
##########        Electrostatic:           -43.214993
##########                 Gist:             0.000000
##########        Van der Waals:           -29.372120
##########  Ligand Polar Desolv:            16.939871
########## Ligand Apolar Desolv:            -4.893069
##########      Internal Energy:             0.000000
##########      Receptor Energy:             0.000000
########## Receptor Desolvation:             0.000000
########## Receptor Hydrophobic:             0.000000
##########         Total Energy:           -60.540310
##########        Ligand Charge:             1.000000
##########            Arbitrary:    +999.9990
##########        Ligand Energy:             0.000000

@<TRIPOS>MOLECULE
 ZINC000441034869      none
   46    48     0     0     0



@<TRIPOS>ATOM
      1 C1        -19.3241    16.0481   -20.1753 C.3        1  LIG1  -0.1900
      2 C2        -19.1944    17.2415   -19.2267 C.3        1  LIG1   0.0300
      3 H1        -20.1846    17.6412   -19.0082 H          1  LIG1   0.1600
      4 C3        -18.3404    18.3264   -19.8859 C.3        1  LIG1   0.0500
      5 H2        -17.9417    19.0103   -19.1365 H          1  LIG1   0.1100
      6 C4        -19.1579    19.0960   -20.9503 C.3        1  LIG1  -0.1000
      7 C5        -18.1139    19.3568   -22.0189 C.ar       1  LIG1  -0.1700
      8 C6        -18.0876    20.2146   -23.0957 C.ar       1  LIG1  -0.0700
      9 C7        -16.9784    20.2526   -23.9225 C.ar       1  LIG1  -0.1300
     10 C8        -15.9002    19.4272   -23.6628 C.ar       1  LIG1  -0.0800
     11 C9        -15.9260    18.5644   -22.5865 C.ar       1  LIG1  -0.1200
     12 C10       -17.0395    18.5176   -21.7516 C.ar       1  LIG1   0.0900
     13 O1        -17.2782    17.7400   -20.6570 O.3        1  LIG1  -0.3000
     14 N1        -18.5552    16.8067   -17.9775 N.4        1  LIG1  -0.3700
     15 H3        -18.9115    15.8999   -17.7153 H          1  LIG1   0.4400
     16 C11       -18.8508    17.7754   -16.9134 C.3        1  LIG1  -0.0600
     17 C12       -17.1018    16.7238   -18.1743 C.3        1  LIG1  -0.0400
     18 C13       -16.4461    16.2779   -16.8929 C.2        1  LIG1   0.5000
     19 O2        -16.0845    17.1006   -16.0784 O.2        1  LIG1  -0.5000
     20 N2        -16.2614    14.9647   -16.6519 N.am       1  LIG1  -0.6400
     21 C14       -15.6526    14.5506   -15.4621 C.ar       1  LIG1   0.1500
     22 C15       -15.9808    13.3223   -14.9036 C.ar       1  LIG1  -0.1400
     23 C16       -15.3788    12.9150   -13.7289 C.ar       1  LIG1  -0.0700
     24 C17       -14.4501    13.7288   -13.1077 C.ar       1  LIG1  -0.1500
     25 C18       -14.1201    14.9553   -13.6611 C.ar       1  LIG1   0.1200
     26 F1        -13.2120    15.7486   -13.0518 F          1  LIG1  -0.1300
     27 C19       -14.7151    15.3647   -14.8406 C.ar       1  LIG1  -0.1500
     28 H4        -18.3340    15.6482   -20.3939 H          1  LIG1   0.0900
     29 H5        -19.9326    15.2751   -19.7058 H          1  LIG1   0.0900
     30 H6        -19.7985    16.3707   -21.1023 H          1  LIG1   0.1100
     31 H7        -19.9683    18.4798   -21.3397 H          1  LIG1   0.1000
     32 H8        -19.5424    20.0317   -20.5447 H          1  LIG1   0.1100
     33 H9        -18.9322    20.8574   -23.2950 H          1  LIG1   0.1300
     34 H10       -16.9554    20.9243   -24.7679 H          1  LIG1   0.1400
     35 H11       -15.0332    19.4579   -24.3061 H          1  LIG1   0.1400
     36 H12       -15.0795    17.9231   -22.3906 H          1  LIG1   0.1300
     37 H13       -18.3765    17.4528   -15.9865 H          1  LIG1   0.1300
     38 H14       -18.4660    18.7551   -17.1967 H          1  LIG1   0.1400
     39 H15       -19.9292    17.8369   -16.7674 H          1  LIG1   0.1200
     40 H16       -16.8825    16.0051   -18.9639 H          1  LIG1   0.1600
     41 H17       -16.7170    17.7035   -18.4575 H          1  LIG1   0.1700
     42 H18       -16.5506    14.3068   -17.3032 H          1  LIG1   0.4200
     43 H19       -16.7068    12.6856   -15.3874 H          1  LIG1   0.1400
     44 H20       -15.6344    11.9597   -13.2950 H          1  LIG1   0.1500
     45 H21       -13.9812    13.4082   -12.1891 H          1  LIG1   0.1500
     46 H22       -14.4581    16.3208   -15.2724 H          1  LIG1   0.1500
@<TRIPOS>BOND
     1    1    2 1
     2    1   28 1
     3    1   29 1
     4    1   30 1
     5    2    3 1
     6    2    4 1
     7    2   14 1
     8    4    5 1
     9    4   13 1
    10    4    6 1
    11    6    7 1
    12    6   31 1
    13    6   32 1
    14    7   12 ar
    15    7    8 ar
    16    8    9 ar
    17    8   33 1
    18    9   10 ar
    19    9   34 1
    20   10   11 ar
    21   10   35 1
    22   11   12 ar
    23   11   36 1
    24   12   13 1
    25   14   15 1
    26   14   16 1
    27   14   17 1
    28   16   37 1
    29   16   38 1
    30   16   39 1
    31   17   18 1
    32   17   40 1
    33   17   41 1
    34   18   19 2
    35   18   20 am
    36   20   21 1
    37   20   42 1
    38   21   27 ar
    39   21   22 ar
    40   22   23 ar
    41   22   43 1
    42   23   24 ar
    43   23   44 1
    44   24   25 ar
    45   24   45 1
    46   25   26 1
    47   25   27 ar
    48   27   46 1
##########                 Name:     ZINC000373369434
##########          Protonation:                 none
##########               SMILES:   CN1C(NCC2=CC(C3=CC=CN=C3)=NN2)=NC2=CC=CC(Cl)=C21
##########            Long Name:   NO_LONG_NAME
##########          FlexRecCode: 1
##########               Number:                 4465
##########   Ligand Source File: /nfs/db/export/3D/EG/ADRO/EGADRO.xbtg.db2.gz
##########                 Rank:                    1
##########               Setnum:                   77
##########             Matchnum:                    1
##########                Cloud:                    1
##########        Electrostatic:           -33.248993
##########                 Gist:             0.000000
##########        Van der Waals:           -33.000004
##########  Ligand Polar Desolv:            11.086974
########## Ligand Apolar Desolv:            -5.296754
##########      Internal Energy:             0.000000
##########      Receptor Energy:             0.000000
########## Receptor Desolvation:             0.000000
########## Receptor Hydrophobic:             0.000000
##########         Total Energy:           -60.458771
##########        Ligand Charge:             1.000000
##########            Arbitrary:    +999.9990
##########        Ligand Energy:             0.000000

@<TRIPOS>MOLECULE
 ZINC000373369434      none
   40    43     0     0     0



@<TRIPOS>ATOM
      1 C1        -21.0977    16.6217   -18.0381 C.3        1  LIG1   0.0600
      2 N1        -20.1315    17.4180   -18.7989 N.pl3      1  LIG1  -0.4600
      3 C2        -18.7720    17.3668   -18.6854 C.cat      1  LIG1   0.6500
      4 N2        -18.0796    16.5440   -17.8220 N.pl3      1  LIG1  -0.6800
      5 C3        -16.6152    16.5800   -17.7922 C.3        1  LIG1   0.1700
      6 C4        -16.1092    15.5935   -16.7715 C.2        1  LIG1   0.0400
      7 C5        -15.1439    15.8236   -15.8550 C.2        1  LIG1  -0.2100
      8 C6        -14.9752    14.6463   -15.1007 C.2        1  LIG1   0.1300
      9 C7        -14.0159    14.4542   -13.9847 C.ar       1  LIG1  -0.0900
     10 C8        -13.9405    13.2298   -13.3160 C.ar       1  LIG1  -0.0400
     11 C9        -13.0289    13.1011   -12.2820 C.ar       1  LIG1  -0.1700
     12 C10       -12.2293    14.1785   -11.9473 C.ar       1  LIG1   0.1200
     13 N3        -12.3235    15.3228   -12.5967 N.ar       1  LIG1  -0.4800
     14 C11       -13.1717    15.4902   -13.5906 C.ar       1  LIG1   0.1300
     15 N4        -15.8187    13.7464   -15.5603 N.2        1  LIG1  -0.2500
     16 N5        -16.5453    14.3260   -16.6083 N.pl3      1  LIG1  -0.4600
     17 N6        -18.2232    18.2152   -19.5187 N.pl3      1  LIG1  -0.5300
     18 H1        -17.2697    18.3598   -19.6222 H          1  LIG1   0.4600
     19 C12       -19.1936    18.8619   -20.2168 C.ar       1  LIG1   0.0800
     20 C13       -19.1689    19.8448   -21.2091 C.ar       1  LIG1  -0.0700
     21 C14       -20.3510    20.3145   -21.7371 C.ar       1  LIG1  -0.0700
     22 C15       -21.5669    19.8192   -21.2911 C.ar       1  LIG1  -0.0600
     23 C16       -21.6088    18.8477   -20.3103 C.ar       1  LIG1  -0.0200
     24 Cl1       -23.1359    18.2341   -19.7580 Cl         1  LIG1  -0.0200
     25 C17       -20.4273    18.3594   -19.7718 C.ar       1  LIG1   0.0900
     26 H2        -20.5656    15.9685   -17.3464 H          1  LIG1   0.1100
     27 H3        -21.7550    17.2862   -17.4774 H          1  LIG1   0.1000
     28 H4        -21.6912    16.0176   -18.7245 H          1  LIG1   0.1200
     29 H5        -18.5620    15.9416   -17.2345 H          1  LIG1   0.4400
     30 H6        -16.2252    16.3175   -18.7757 H          1  LIG1   0.1000
     31 H7        -16.2817    17.5827   -17.5249 H          1  LIG1   0.1200
     32 H8        -14.5979    16.7463   -15.7245 H          1  LIG1   0.1600
     33 H9        -14.5777    12.4047   -13.5984 H          1  LIG1   0.1400
     34 H10       -12.9433    12.1695   -11.7425 H          1  LIG1   0.1400
     35 H11       -11.5171    14.0818   -11.1413 H          1  LIG1   0.1600
     36 H12       -13.2195    16.4421   -14.0986 H          1  LIG1   0.1600
     37 H13       -17.2369    13.8902   -17.1305 H          1  LIG1   0.4400
     38 H14       -18.2255    20.2356   -21.5611 H          1  LIG1   0.1600
     39 H15       -20.3308    21.0746   -22.5039 H          1  LIG1   0.1700
     40 H16       -22.4871    20.1957   -21.7130 H          1  LIG1   0.1700
@<TRIPOS>BOND
     1    1    2 1
     2    1   26 1
     3    1   27 1
     4    1   28 1
     5    2   25 1
     6    2    3 1
     7    3    4 1
     8    3   17 1
     9    4    5 1
    10    4   29 1
    11    5    6 1
    12    5   30 1
    13    5   31 1
    14    6   16 1
    15    6    7 2
    16    7    8 1
    17    7   32 1
    18    8    9 1
    19    8   15 2
    20    9   14 ar
    21    9   10 ar
    22   10   11 ar
    23   10   33 1
    24   11   12 ar
    25   11   34 1
    26   12   13 ar
    27   12   35 1
    28   13   14 ar
    29   14   36 1
    30   15   16 1
    31   16   37 1
    32   17   18 1
    33   17   19 1
    34   19   25 ar
    35   19   20 ar
    36   20   21 ar
    37   20   38 1
    38   21   22 ar
    39   21   39 1
    40   22   23 ar
    41   22   40 1
    42   23   24 1
    43   23   25 ar
##########                 Name:     ZINC000278526763
##########          Protonation:                 none
##########               SMILES:   CN1N=CC=C1CC[N@@H+](C)CC1=CC=CC=C1[N+](=O)[O-]
##########            Long Name:   NO_LONG_NAME
##########          FlexRecCode: 1
##########               Number:                10631
##########   Ligand Source File: /nfs/db/export/3D/CE/BDMO/CEBDMO.xaa.db2.gz
##########                 Rank:                    1
##########               Setnum:                   17
##########             Matchnum:                    1
##########                Cloud:                    1
##########        Electrostatic:           -45.453480
##########                 Gist:             0.000000
##########        Van der Waals:           -28.632298
##########  Ligand Polar Desolv:            18.761066
########## Ligand Apolar Desolv:            -4.961431
##########      Internal Energy:             0.000000
##########      Receptor Energy:             0.000000
########## Receptor Desolvation:             0.000000
########## Receptor Hydrophobic:             0.000000
##########         Total Energy:           -60.286140
##########        Ligand Charge:             1.000000
##########            Arbitrary:    +999.9990
##########        Ligand Energy:             0.000000

@<TRIPOS>MOLECULE
 ZINC000278526763      none
   39    40     0     0     0



@<TRIPOS>ATOM
      1 C1        -22.3607    15.4705   -19.5622 C.3        1  LIG1   0.0900
      2 N1        -22.1576    16.8851   -19.8848 N.pl3      1  LIG1  -0.3600
      3 N2        -22.9896    17.6748   -20.6886 N.2        1  LIG1  -0.2700
      4 C2        -22.4822    18.8796   -20.7426 C.2        1  LIG1   0.0500
      5 C3        -21.3124    18.8957   -19.9761 C.2        1  LIG1  -0.2500
      6 C4        -21.1389    17.6589   -19.4551 C.2        1  LIG1   0.0600
      7 C5        -20.0055    17.2214   -18.5635 C.3        1  LIG1  -0.0800
      8 C6        -18.8509    16.7033   -19.4235 C.3        1  LIG1   0.0000
      9 N3        -17.7461    16.2767   -18.5544 N.4        1  LIG1  -0.3800
     10 H1        -18.1184    15.8022   -17.7455 H          1  LIG1   0.4200
     11 C7        -16.8648    15.3641   -19.2949 C.3        1  LIG1  -0.0600
     12 C8        -16.9804    17.4536   -18.1223 C.3        1  LIG1   0.0300
     13 C9        -16.1880    17.1115   -16.8871 C.ar       1  LIG1  -0.0900
     14 C10       -16.2592    15.8398   -16.3505 C.ar       1  LIG1  -0.0900
     15 C11       -15.5321    15.5259   -15.2172 C.ar       1  LIG1  -0.0600
     16 C12       -14.7337    16.4837   -14.6212 C.ar       1  LIG1  -0.0800
     17 C13       -14.6616    17.7556   -15.1584 C.ar       1  LIG1  -0.0400
     18 C14       -15.3851    18.0681   -16.2938 C.ar       1  LIG1  -0.0400
     19 N4        -15.3081    19.4298   -16.8690 N.pl3      1  LIG1   0.0200
     20 O1        -15.9521    19.7075   -17.8649 O.2        1  LIG1  -0.0900
     21 O2        -14.6011    20.2725   -16.3463 O.2        1  LIG1  -0.2100
     22 H2        -23.2666    15.1128   -20.0514 H          1  LIG1   0.0800
     23 H3        -21.5059    14.8917   -19.9124 H          1  LIG1   0.1000
     24 H4        -22.4604    15.3546   -18.4830 H          1  LIG1   0.0900
     25 H5        -22.8949    19.7169   -21.2858 H          1  LIG1   0.1900
     26 H6        -20.6645    19.7462   -19.8232 H          1  LIG1   0.1500
     27 H7        -19.6637    18.0681   -17.9684 H          1  LIG1   0.1000
     28 H8        -20.3500    16.4272   -17.9013 H          1  LIG1   0.1100
     29 H9        -19.1927    15.8566   -20.0188 H          1  LIG1   0.1400
     30 H10       -18.5064    17.4975   -20.0858 H          1  LIG1   0.1400
     31 H11       -16.0450    15.0476   -18.6501 H          1  LIG1   0.1200
     32 H12       -17.4330    14.4908   -19.6155 H          1  LIG1   0.1300
     33 H13       -16.4627    15.8766   -20.1688 H          1  LIG1   0.1300
     34 H14       -16.3001    17.7567   -18.9182 H          1  LIG1   0.1500
     35 H15       -17.6659    18.2712   -17.8994 H          1  LIG1   0.1600
     36 H16       -16.8832    15.0913   -16.8162 H          1  LIG1   0.1600
     37 H17       -15.5884    14.5324   -14.7975 H          1  LIG1   0.1600
     38 H18       -14.1662    16.2387   -13.7354 H          1  LIG1   0.1600
     39 H19       -14.0380    18.5041   -14.6924 H          1  LIG1   0.1700
@<TRIPOS>BOND
     1    1    2 1
     2    1   22 1
     3    1   23 1
     4    1   24 1
     5    2    6 1
     6    2    3 1
     7    3    4 2
     8    4    5 1
     9    4   25 1
    10    5    6 2
    11    5   26 1
    12    6    7 1
    13    7    8 1
    14    7   27 1
    15    7   28 1
    16    8    9 1
    17    8   29 1
    18    8   30 1
    19    9   10 1
    20    9   11 1
    21    9   12 1
    22   11   31 1
    23   11   32 1
    24   11   33 1
    25   12   13 1
    26   12   34 1
    27   12   35 1
    28   13   18 ar
    29   13   14 ar
    30   14   15 ar
    31   14   36 1
    32   15   16 ar
    33   15   37 1
    34   16   17 ar
    35   16   38 1
    36   17   18 ar
    37   17   39 1
    38   18   19 1
    39   19   20 2
    40   19   21 2
##########                 Name:     ZINC000466911422
##########          Protonation:                 none
##########               SMILES:   CC1=CC=CC(C[C@H](CO)[NH2+]CC2=CC=CC(Cl)=C2)=C1
##########            Long Name:   NO_LONG_NAME
##########          FlexRecCode: 1
##########               Number:                 8357
##########   Ligand Source File: /nfs/db/export/3D/CG/ADRO/CGADRO.xaey.db2.gz
##########                 Rank:                    1
##########               Setnum:                  243
##########             Matchnum:                    1
##########                Cloud:                    1
##########        Electrostatic:           -43.706776
##########                 Gist:             0.000000
##########        Van der Waals:           -25.864422
##########  Ligand Polar Desolv:            13.021014
########## Ligand Apolar Desolv:            -4.289693
##########      Internal Energy:             0.000000
##########      Receptor Energy:             0.000000
########## Receptor Desolvation:             0.000000
########## Receptor Hydrophobic:             0.000000
##########         Total Energy:           -60.839874
##########        Ligand Charge:             1.000000
##########            Arbitrary:    +999.9990
##########        Ligand Energy:             0.000000

@<TRIPOS>MOLECULE
 ZINC000466911422      none
   41    42     0     0     0



@<TRIPOS>ATOM
      1 C1        -17.5479    19.8845   -23.0497 C.3        1  LIG1  -0.1300
      2 C2        -18.3409    18.9369   -22.1868 C.ar       1  LIG1  -0.0700
      3 C3        -19.7166    18.8804   -22.3062 C.ar       1  LIG1  -0.1100
      4 C4        -20.4441    18.0112   -21.5145 C.ar       1  LIG1  -0.1000
      5 C5        -19.7956    17.1985   -20.6039 C.ar       1  LIG1  -0.1100
      6 C6        -18.4193    17.2543   -20.4851 C.ar       1  LIG1  -0.1200
      7 C7        -17.7121    16.3685   -19.4920 C.3        1  LIG1  -0.0900
      8 C8        -17.5976    17.0959   -18.1508 C.3        1  LIG1   0.0400
      9 H1        -18.5219    17.6381   -17.9515 H          1  LIG1   0.1500
     10 C9        -16.4290    18.0820   -18.2036 C.3        1  LIG1   0.0500
     11 O1        -16.0224    18.4105   -16.8736 O.3        1  LIG1  -0.5800
     12 N1        -17.3639    16.1167   -17.0810 N.4        1  LIG1  -0.5100
     13 H2        -17.2885    16.5964   -16.1967 H          1  LIG1   0.4300
     14 H3        -18.1345    15.4662   -17.0462 H          1  LIG1   0.4300
     15 C10       -16.1182    15.3859   -17.3496 C.3        1  LIG1   0.0400
     16 C11       -15.8785    14.3814   -16.2521 C.ar       1  LIG1  -0.1500
     17 C12       -16.3786    13.0981   -16.3688 C.ar       1  LIG1  -0.0900
     18 C13       -16.1588    12.1758   -15.3625 C.ar       1  LIG1  -0.1000
     19 C14       -15.4394    12.5366   -14.2392 C.ar       1  LIG1  -0.0800
     20 C15       -14.9386    13.8211   -14.1218 C.ar       1  LIG1  -0.0400
     21 Cl1       -14.0341    14.2750   -12.7112 Cl         1  LIG1  -0.0400
     22 C16       -15.1539    14.7418   -15.1314 C.ar       1  LIG1  -0.0900
     23 C17       -17.6915    18.1202   -21.2796 C.ar       1  LIG1  -0.1400
     24 H4        -18.2263    20.4407   -23.6967 H          1  LIG1   0.0800
     25 H5        -16.9985    20.5801   -22.4155 H          1  LIG1   0.0800
     26 H6        -16.8457    19.3178   -23.6612 H          1  LIG1   0.0700
     27 H7        -20.2235    19.5154   -23.0177 H          1  LIG1   0.1300
     28 H8        -21.5193    17.9675   -21.6073 H          1  LIG1   0.1300
     29 H9        -20.3638    16.5199   -19.9850 H          1  LIG1   0.1300
     30 H10       -18.2793    15.4473   -19.3584 H          1  LIG1   0.1100
     31 H11       -16.7150    16.1308   -19.8627 H          1  LIG1   0.1200
     32 H12       -15.5941    17.6278   -18.7371 H          1  LIG1   0.1000
     33 H13       -16.7415    18.9883   -18.7223 H          1  LIG1   0.0700
     34 H14       -15.7308    17.6500   -16.3523 H          1  LIG1   0.4100
     35 H15       -16.1998    14.8677   -18.3050 H          1  LIG1   0.1400
     36 H16       -15.2857    16.0886   -17.3872 H          1  LIG1   0.1400
     37 H17       -16.9416    12.8159   -17.2462 H          1  LIG1   0.1400
     38 H18       -16.5498    11.1732   -15.4543 H          1  LIG1   0.1500
     39 H19       -15.2683    11.8163   -13.4529 H          1  LIG1   0.1500
     40 H20       -14.7632    15.7446   -15.0405 H          1  LIG1   0.1400
     41 H21       -16.6164    18.1639   -21.1869 H          1  LIG1   0.1200
@<TRIPOS>BOND
     1    1    2 1
     2    1   24 1
     3    1   25 1
     4    1   26 1
     5    2   23 ar
     6    2    3 ar
     7    3    4 ar
     8    3   27 1
     9    4    5 ar
    10    4   28 1
    11    5    6 ar
    12    5   29 1
    13    6    7 1
    14    6   23 ar
    15    7    8 1
    16    7   30 1
    17    7   31 1
    18    8    9 1
    19    8   10 1
    20    8   12 1
    21   10   11 1
    22   10   32 1
    23   10   33 1
    24   11   34 1
    25   12   13 1
    26   12   14 1
    27   12   15 1
    28   15   16 1
    29   15   35 1
    30   15   36 1
    31   16   22 ar
    32   16   17 ar
    33   17   18 ar
    34   17   37 1
    35   18   19 ar
    36   18   38 1
    37   19   20 ar
    38   19   39 1
    39   20   21 1
    40   20   22 ar
    41   22   40 1
    42   23   41 1
##########                 Name:     ZINC000299250852
##########          Protonation:                 none
##########               SMILES:   CC(C)C[C@@H](C[NH+](C)C)NC(=O)/C=C/C1=CC=CC(C#N)=C1
##########            Long Name:   NO_LONG_NAME
##########          FlexRecCode: 1
##########               Number:                10053
##########   Ligand Source File: /nfs/db/export/3D/CF/EDRO/CFEDRO.xfe.db2.gz
##########                 Rank:                    1
##########               Setnum:                   36
##########             Matchnum:                    1
##########                Cloud:                    1
##########        Electrostatic:           -48.308083
##########                 Gist:             0.000000
##########        Van der Waals:           -30.882196
##########  Ligand Polar Desolv:            23.852047
########## Ligand Apolar Desolv:            -5.507300
##########      Internal Energy:             0.000000
##########      Receptor Energy:             0.000000
########## Receptor Desolvation:             0.000000
########## Receptor Hydrophobic:             0.000000
##########         Total Energy:           -60.845531
##########        Ligand Charge:             1.000000
##########            Arbitrary:    +999.9990
##########        Ligand Energy:             0.000000

@<TRIPOS>MOLECULE
 ZINC000299250852      none
   48    48     0     0     0



@<TRIPOS>ATOM
      1 C1        -17.7667    19.6460   -20.9047 C.3        1  LIG1  -0.1600
      2 C2        -17.5128    18.2153   -21.3834 C.3        1  LIG1  -0.1000
      3 C3        -16.4919    18.2323   -22.5229 C.3        1  LIG1  -0.1500
      4 C4        -16.9689    17.3786   -20.2238 C.3        1  LIG1  -0.1300
      5 C5        -17.9897    17.3615   -19.0843 C.3        1  LIG1   0.1200
      6 H1        -18.1707    18.3808   -18.7432 H          1  LIG1   0.1200
      7 C6        -19.3007    16.7504   -19.5831 C.3        1  LIG1  -0.0200
      8 N1        -20.0958    16.2933   -18.4356 N.4        1  LIG1  -0.3900
      9 H2        -19.5753    15.5987   -17.9210 H          1  LIG1   0.4200
     10 C7        -20.3900    17.4341   -17.5581 C.3        1  LIG1  -0.0500
     11 C8        -21.3544    15.7065   -18.9146 C.3        1  LIG1  -0.0500
     12 N2        -17.4688    16.5603   -17.9738 N.am       1  LIG1  -0.7500
     13 C9        -16.7356    17.1457   -17.0064 C.2        1  LIG1   0.5600
     14 O1        -16.5062    18.3399   -17.0552 O.2        1  LIG1  -0.5200
     15 C10       -16.2148    16.3449   -15.8966 C.2        1  LIG1  -0.2400
     16 C11       -15.9162    15.0441   -16.0861 C.2        1  LIG1   0.0200
     17 C12       -15.3926    14.2388   -14.9702 C.ar       1  LIG1  -0.0900
     18 C13       -15.4720    12.8427   -15.0147 C.ar       1  LIG1  -0.0700
     19 C14       -14.9819    12.0872   -13.9686 C.ar       1  LIG1  -0.1200
     20 C15       -14.4100    12.7019   -12.8723 C.ar       1  LIG1  -0.0500
     21 C16       -14.3235    14.0957   -12.8136 C.ar       1  LIG1  -0.0200
     22 C17       -13.7304    14.7304   -11.6752 C.1        1  LIG1   0.2400
     23 N3        -13.2598    15.2339   -10.7721 N.1        1  LIG1  -0.3900
     24 C18       -14.8104    14.8660   -13.8673 C.ar       1  LIG1  -0.0400
     25 H3        -18.4941    19.6338   -20.0929 H          1  LIG1   0.0600
     26 H4        -16.8328    20.0814   -20.5492 H          1  LIG1   0.0500
     27 H5        -18.1542    20.2422   -21.7309 H          1  LIG1   0.0600
     28 H6        -18.4467    17.7799   -21.7388 H          1  LIG1   0.0700
     29 H7        -16.3110    17.2129   -22.8639 H          1  LIG1   0.0600
     30 H8        -16.8794    18.8283   -23.3490 H          1  LIG1   0.0600
     31 H9        -15.5580    18.6676   -22.1675 H          1  LIG1   0.0600
     32 H10       -16.7880    16.3592   -20.5648 H          1  LIG1   0.0800
     33 H11       -16.0350    17.8138   -19.8683 H          1  LIG1   0.0900
     34 H12       -19.8630    17.5007   -20.1389 H          1  LIG1   0.1500
     35 H13       -19.0824    15.9038   -20.2342 H          1  LIG1   0.1400
     36 H14       -20.9799    17.0950   -16.7067 H          1  LIG1   0.1300
     37 H15       -19.4560    17.8695   -17.2028 H          1  LIG1   0.1200
     38 H16       -20.9523    18.1844   -18.1141 H          1  LIG1   0.1300
     39 H17       -21.9444    15.3673   -18.0631 H          1  LIG1   0.1200
     40 H18       -21.9168    16.4568   -19.4704 H          1  LIG1   0.1300
     41 H19       -21.1361    14.8599   -19.5656 H          1  LIG1   0.1200
     42 H20       -17.6517    15.6084   -17.9350 H          1  LIG1   0.4000
     43 H21       -16.0700    16.7964   -14.9262 H          1  LIG1   0.1300
     44 H22       -16.0611    14.5926   -17.0564 H          1  LIG1   0.1400
     45 H23       -15.9180    12.3552   -15.8689 H          1  LIG1   0.1300
     46 H24       -15.0463    11.0098   -14.0077 H          1  LIG1   0.1400
     47 H25       -14.0287    12.1039   -12.0578 H          1  LIG1   0.1400
     48 H26       -14.7458    15.9432   -13.8271 H          1  LIG1   0.1400
@<TRIPOS>BOND
     1    1    2 1
     2    1   25 1
     3    1   26 1
     4    1   27 1
     5    2    3 1
     6    2    4 1
     7    2   28 1
     8    3   29 1
     9    3   30 1
    10    3   31 1
    11    4    5 1
    12    4   32 1
    13    4   33 1
    14    5    6 1
    15    5    7 1
    16    5   12 1
    17    7    8 1
    18    7   34 1
    19    7   35 1
    20    8    9 1
    21    8   10 1
    22    8   11 1
    23   10   36 1
    24   10   37 1
    25   10   38 1
    26   11   39 1
    27   11   40 1
    28   11   41 1
    29   12   13 am
    30   12   42 1
    31   13   14 2
    32   13   15 1
    33   15   16 2
    34   15   43 1
    35   16   17 1
    36   16   44 1
    37   17   24 ar
    38   17   18 ar
    39   18   19 ar
    40   18   45 1
    41   19   20 ar
    42   19   46 1
    43   20   21 ar
    44   20   47 1
    45   21   22 1
    46   21   24 ar
    47   22   23 3
    48   24   48 1
##########                 Name:     ZINC000179584433
##########          Protonation:                 none
##########               SMILES:   NC(=O)[C@@H]1CCC[N@@H+]1CC1=CC=CC(OCC2=CC=CC=N2)=C1
##########            Long Name:   NO_LONG_NAME
##########          FlexRecCode: 1
##########               Number:                13305
##########   Ligand Source File: /nfs/db/export/3D/DE/ADMO/DEADMO.xaks.db2.gz
##########                 Rank:                    1
##########               Setnum:                  165
##########             Matchnum:                    1
##########                Cloud:                    1
##########        Electrostatic:           -38.500019
##########                 Gist:             0.000000
##########        Van der Waals:           -33.750851
##########  Ligand Polar Desolv:            15.544101
########## Ligand Apolar Desolv:            -3.564864
##########      Internal Energy:             0.000000
##########      Receptor Energy:             0.000000
########## Receptor Desolvation:             0.000000
########## Receptor Hydrophobic:             0.000000
##########         Total Energy:           -60.271633
##########        Ligand Charge:             1.000000
##########            Arbitrary:    +999.9990
##########        Ligand Energy:             0.000000

@<TRIPOS>MOLECULE
 ZINC000179584433      none
   45    47     0     0     0



@<TRIPOS>ATOM
      1 N1        -19.9855    17.5630   -21.4768 N.am       1  LIG1  -0.8300
      2 C1        -20.6096    17.4924   -20.2843 C.2        1  LIG1   0.5100
      3 O1        -21.4165    18.3417   -19.9710 O.2        1  LIG1  -0.5100
      4 C2        -20.3069    16.3668   -19.3476 C.3        1  LIG1   0.0000
      5 H1        -20.0240    15.4611   -19.8866 H          1  LIG1   0.1600
      6 C3        -21.4735    16.0683   -18.4224 C.3        1  LIG1  -0.1300
      7 C4        -21.3281    17.0897   -17.3056 C.3        1  LIG1  -0.1400
      8 C5        -19.8322    17.3092   -17.1397 C.3        1  LIG1  -0.0100
      9 N2        -19.1969    16.6952   -18.3697 N.4        1  LIG1  -0.3800
     10 H2        -18.8238    15.7393   -18.0361 H          1  LIG1   0.4300
     11 C6        -18.0269    17.4518   -18.9125 C.3        1  LIG1   0.0300
     12 C7        -17.0274    17.6897   -17.8099 C.ar       1  LIG1  -0.1200
     13 C8        -16.4533    18.9379   -17.6559 C.ar       1  LIG1  -0.1300
     14 C9        -15.5356    19.1594   -16.6452 C.ar       1  LIG1  -0.0700
     15 C10       -15.1905    18.1335   -15.7870 C.ar       1  LIG1  -0.1800
     16 C11       -15.7653    16.8799   -15.9397 C.ar       1  LIG1   0.1400
     17 O2        -15.4278    15.8691   -15.0964 O.3        1  LIG1  -0.3100
     18 C12       -16.0590    14.6055   -15.3130 C.3        1  LIG1   0.1100
     19 C13       -15.5651    13.6154   -14.2899 C.ar       1  LIG1   0.1100
     20 C14       -14.6435    14.0159   -13.3413 C.ar       1  LIG1  -0.1500
     21 C15       -14.1958    13.0972   -12.4040 C.ar       1  LIG1  -0.0700
     22 C16       -14.6941    11.8046   -12.4567 C.ar       1  LIG1  -0.1700
     23 C17       -15.6144    11.4769   -13.4347 C.ar       1  LIG1   0.1100
     24 N3        -16.0215    12.3781   -14.3068 N.ar       1  LIG1  -0.4800
     25 C18       -16.6897    16.6619   -16.9507 C.ar       1  LIG1  -0.1300
     26 H3        -20.1804    18.2943   -22.0835 H          1  LIG1   0.4200
     27 H4        -19.3385    16.8848   -21.7266 H          1  LIG1   0.4100
     28 H5        -22.4315    16.1934   -18.9495 H          1  LIG1   0.1100
     29 H6        -21.4078    15.0422   -18.0300 H          1  LIG1   0.1200
     30 H7        -21.8423    18.0423   -17.5669 H          1  LIG1   0.1200
     31 H8        -21.7812    16.7142   -16.3601 H          1  LIG1   0.1000
     32 H9        -19.5857    18.3724   -17.1014 H          1  LIG1   0.1400
     33 H10       -19.4497    16.8029   -16.2510 H          1  LIG1   0.1400
     34 H11       -17.5585    16.8740   -19.7092 H          1  LIG1   0.1300
     35 H12       -18.3655    18.4090   -19.3087 H          1  LIG1   0.1700
     36 H13       -16.7216    19.7411   -18.3261 H          1  LIG1   0.1300
     37 H14       -15.0882    20.1353   -16.5271 H          1  LIG1   0.1400
     38 H15       -14.4735    18.3070   -14.9983 H          1  LIG1   0.1400
     39 H16       -17.1390    14.7179   -15.2181 H          1  LIG1   0.0900
     40 H17       -15.8177    14.2455   -16.3131 H          1  LIG1   0.0900
     41 H18       -14.2764    15.0315   -13.3302 H          1  LIG1   0.1400
     42 H19       -13.4756    13.3818   -11.6512 H          1  LIG1   0.1400
     43 H20       -14.3674    11.0630   -11.7428 H          1  LIG1   0.1400
     44 H21       -16.0072    10.4721   -13.4827 H          1  LIG1   0.1700
     45 H22       -17.1385    15.6869   -17.0716 H          1  LIG1   0.1400
@<TRIPOS>BOND
     1    1    2 am
     2    1   26 1
     3    1   27 1
     4    2    3 2
     5    2    4 1
     6    4    5 1
     7    4    9 1
     8    4    6 1
     9    6    7 1
    10    6   28 1
    11    6   29 1
    12    7    8 1
    13    7   30 1
    14    7   31 1
    15    8    9 1
    16    8   32 1
    17    8   33 1
    18    9   10 1
    19    9   11 1
    20   11   12 1
    21   11   34 1
    22   11   35 1
    23   12   25 ar
    24   12   13 ar
    25   13   14 ar
    26   13   36 1
    27   14   15 ar
    28   14   37 1
    29   15   16 ar
    30   15   38 1
    31   16   17 1
    32   16   25 ar
    33   17   18 1
    34   18   19 1
    35   18   39 1
    36   18   40 1
    37   19   24 ar
    38   19   20 ar
    39   20   21 ar
    40   20   41 1
    41   21   22 ar
    42   21   42 1
    43   22   23 ar
    44   22   43 1
    45   23   24 ar
    46   23   44 1
    47   25   45 1
##########                 Name:     ZINC000532279338
##########          Protonation:                 none
##########               SMILES:   Cc1ccc(CC[C@H](C)[NH2+]C[C@H](CO)Cc2ccco2)cc1
##########            Long Name:   NO_LONG_NAME
##########          FlexRecCode: 1
##########               Number:                 8572
##########   Ligand Source File: /nfs/db/export/3D/DG/ADRO/DGADRO.xbmi.db2.gz
##########                 Rank:                    1
##########               Setnum:                   56
##########             Matchnum:                    1
##########                Cloud:                    1
##########        Electrostatic:           -35.431648
##########                 Gist:             0.000000
##########        Van der Waals:           -28.151806
##########  Ligand Polar Desolv:             9.237637
########## Ligand Apolar Desolv:            -6.096748
##########      Internal Energy:             0.000000
##########      Receptor Energy:             0.000000
########## Receptor Desolvation:             0.000000
########## Receptor Hydrophobic:             0.000000
##########         Total Energy:           -60.442566
##########        Ligand Charge:             1.000000
##########            Arbitrary:    +999.9990
##########        Ligand Energy:             0.000000

@<TRIPOS>MOLECULE
 ZINC000532279338      none
   50    51     0     0     0



@<TRIPOS>ATOM
      1 C1        -14.4290    10.6982   -12.4118 C.3        1  LIG1  -0.1200
      2 C2        -14.7691    11.8543   -13.3168 C.ar       1  LIG1  -0.0700
      3 C3        -15.6351    11.6696   -14.3783 C.ar       1  LIG1  -0.1200
      4 C4        -15.9471    12.7301   -15.2083 C.ar       1  LIG1  -0.1100
      5 C5        -15.3934    13.9753   -14.9767 C.ar       1  LIG1  -0.1100
      6 C6        -15.7331    15.1312   -15.8819 C.3        1  LIG1  -0.0900
      7 C7        -16.9639    15.8598   -15.3386 C.3        1  LIG1  -0.1400
      8 C8        -17.3088    17.0335   -16.2577 C.3        1  LIG1   0.0200
      9 H1        -16.4661    17.7237   -16.2976 H          1  LIG1   0.1400
     10 C9        -18.5396    17.7620   -15.7144 C.3        1  LIG1  -0.1800
     11 N1        -17.5938    16.5304   -17.6081 N.4        1  LIG1  -0.5000
     12 H2        -16.7823    16.0498   -17.9664 H          1  LIG1   0.4300
     13 H3        -18.3740    15.8914   -17.5713 H          1  LIG1   0.4200
     14 C10       -17.9251    17.6571   -18.4906 C.3        1  LIG1  -0.0100
     15 C11       -18.2220    17.1332   -19.8972 C.3        1  LIG1  -0.1100
     16 H4        -18.7965    16.2096   -19.8271 H          1  LIG1   0.1100
     17 C12       -16.9059    16.8610   -20.6283 C.3        1  LIG1   0.0600
     18 O1        -16.1527    18.0720   -20.7201 O.3        1  LIG1  -0.6000
     19 C13       -19.0286    18.1781   -20.6708 C.3        1  LIG1  -0.0300
     20 C14       -20.4773    18.0967   -20.2639 C.2        1  LIG1  -0.0400
     21 C15       -21.4738    18.8615   -20.7451 C.2        1  LIG1  -0.1900
     22 C16       -22.6582    18.4496   -20.0921 C.2        1  LIG1  -0.2100
     23 C17       -22.3147    17.4578   -19.2509 C.2        1  LIG1  -0.0200
     24 O2        -20.9935    17.2444   -19.3635 O.3        1  LIG1  -0.1800
     25 C18       -14.5285    14.1603   -13.9144 C.ar       1  LIG1  -0.1100
     26 C19       -14.2195    13.1008   -13.0820 C.ar       1  LIG1  -0.1200
     27 H5        -14.9528     9.8047   -12.7514 H          1  LIG1   0.0800
     28 H6        -13.3539    10.5209   -12.4374 H          1  LIG1   0.0700
     29 H7        -14.7344    10.9329   -11.3921 H          1  LIG1   0.0700
     30 H8        -16.0678    10.6967   -14.5592 H          1  LIG1   0.1300
     31 H9        -16.6232    12.5855   -16.0381 H          1  LIG1   0.1200
     32 H10       -14.8904    15.8214   -15.9217 H          1  LIG1   0.0800
     33 H11       -15.9446    14.7581   -16.8839 H          1  LIG1   0.0700
     34 H12       -17.8066    15.1697   -15.2989 H          1  LIG1   0.0900
     35 H13       -16.7524    16.2330   -14.3367 H          1  LIG1   0.1100
     36 H14       -18.7854    18.5981   -16.3691 H          1  LIG1   0.0800
     37 H15       -19.3822    17.0718   -15.6746 H          1  LIG1   0.1100
     38 H16       -18.3280    18.1352   -14.7125 H          1  LIG1   0.0800
     39 H17       -18.8019    18.1762   -18.1037 H          1  LIG1   0.1400
     40 H18       -17.0823    18.3475   -18.5304 H          1  LIG1   0.1300
     41 H19       -16.3313    16.1167   -20.0772 H          1  LIG1   0.0800
     42 H20       -17.1174    16.4879   -21.6303 H          1  LIG1   0.0700
     43 H21       -16.6041    18.7806   -21.1992 H          1  LIG1   0.4100
     44 H22       -18.6437    19.1730   -20.4470 H          1  LIG1   0.1100
     45 H23       -18.9402    17.9865   -21.7402 H          1  LIG1   0.1000
     46 H24       -21.3858    19.6411   -21.4873 H          1  LIG1   0.1500
     47 H25       -23.6487    18.8540   -20.2400 H          1  LIG1   0.1500
     48 H26       -22.9878    16.9213   -18.5986 H          1  LIG1   0.2100
     49 H27       -14.0961    15.1333   -13.7332 H          1  LIG1   0.1200
     50 H28       -13.5437    13.2453   -12.2520 H          1  LIG1   0.1300
@<TRIPOS>BOND
     1    1    2 1
     2    1   27 1
     3    1   28 1
     4    1   29 1
     5    2   26 ar
     6    2    3 ar
     7    3    4 ar
     8    3   30 1
     9    4    5 ar
    10    4   31 1
    11    5    6 1
    12    5   25 ar
    13    6    7 1
    14    6   32 1
    15    6   33 1
    16    7    8 1
    17    7   34 1
    18    7   35 1
    19    8    9 1
    20    8   10 1
    21    8   11 1
    22   10   36 1
    23   10   37 1
    24   10   38 1
    25   11   12 1
    26   11   13 1
    27   11   14 1
    28   14   15 1
    29   14   39 1
    30   14   40 1
    31   15   16 1
    32   15   17 1
    33   15   19 1
    34   17   18 1
    35   17   41 1
    36   17   42 1
    37   18   43 1
    38   19   20 1
    39   19   44 1
    40   19   45 1
    41   20   24 1
    42   20   21 2
    43   21   22 1
    44   21   46 1
    45   22   23 2
    46   22   47 1
    47   23   24 1
    48   23   48 1
    49   25   26 ar
    50   25   49 1
    51   26   50 1
##########                 Name:     ZINC000598677999
##########          Protonation:                 none
##########               SMILES:   CCOC(=O)C1=NN(C2=CC=CC=C2)C=C1C[NH2+]CC[C@H]1CC1(F)F
##########            Long Name:   NO_LONG_NAME
##########          FlexRecCode: 1
##########               Number:                 3524
##########   Ligand Source File: /nfs/db/export/3D/EG/ADRO/EGADRO.xcve.db2.gz
##########                 Rank:                    1
##########               Setnum:                   30
##########             Matchnum:                    1
##########                Cloud:                    1
##########        Electrostatic:           -41.729694
##########                 Gist:             0.000000
##########        Van der Waals:           -31.031242
##########  Ligand Polar Desolv:            18.873882
########## Ligand Apolar Desolv:            -6.601867
##########      Internal Energy:             0.000000
##########      Receptor Energy:             0.000000
########## Receptor Desolvation:             0.000000
########## Receptor Hydrophobic:             0.000000
##########         Total Energy:           -60.488926
##########        Ligand Charge:             1.000000
##########            Arbitrary:    +999.9990
##########        Ligand Energy:             0.000000

@<TRIPOS>MOLECULE
 ZINC000598677999      none
   47    49     0     0     0



@<TRIPOS>ATOM
      1 C1        -13.4925    20.3353   -18.3738 C.3        1  LIG1  -0.1600
      2 C2        -14.0691    20.2111   -16.9620 C.3        1  LIG1   0.0600
      3 O1        -14.1711    18.8081   -16.6025 O.3        1  LIG1  -0.3300
      4 C3        -15.3238    18.1807   -16.9076 C.2        1  LIG1   0.5600
      5 O2        -16.2193    18.7893   -17.4589 O.2        1  LIG1  -0.5100
      6 C4        -15.4988    16.7547   -16.5721 C.2        1  LIG1   0.0200
      7 N1        -14.9500    16.1154   -15.5573 N.2        1  LIG1  -0.2000
      8 N2        -15.3146    14.8834   -15.5619 N.pl3      1  LIG1  -0.2100
      9 C5        -14.9147    13.9243   -14.6220 C.ar       1  LIG1   0.1000
     10 C6        -15.3674    12.6159   -14.7276 C.ar       1  LIG1  -0.1200
     11 C7        -14.9716    11.6727   -13.7995 C.ar       1  LIG1  -0.1000
     12 C8        -14.1251    12.0303   -12.7661 C.ar       1  LIG1  -0.1000
     13 C9        -13.6728    13.3327   -12.6581 C.ar       1  LIG1  -0.1000
     14 C10       -14.0603    14.2790   -13.5866 C.ar       1  LIG1  -0.0900
     15 C11       -16.1449    14.6463   -16.6110 C.2        1  LIG1   0.0400
     16 C12       -16.2917    15.8161   -17.2756 C.2        1  LIG1  -0.2300
     17 C13       -17.1179    16.0653   -18.5112 C.3        1  LIG1   0.0900
     18 N3        -18.4744    16.4711   -18.1194 N.4        1  LIG1  -0.5100
     19 H1        -18.8999    15.7378   -17.5723 H          1  LIG1   0.4300
     20 H2        -18.4272    17.3162   -17.5703 H          1  LIG1   0.4300
     21 C14       -19.2797    16.7140   -19.3237 C.3        1  LIG1   0.0000
     22 C15       -20.6925    17.1366   -18.9158 C.3        1  LIG1  -0.1200
     23 C16       -21.5313    17.3895   -20.1701 C.3        1  LIG1  -0.1600
     24 H3        -21.6472    16.5360   -20.8381 H          1  LIG1   0.1400
     25 C17       -22.7109    18.3564   -20.0480 C.3        1  LIG1  -0.1700
     26 C18       -21.4498    18.7786   -20.8062 C.3        1  LIG1   0.2100
     27 F1        -20.6145    19.7206   -20.1962 F          1  LIG1  -0.1600
     28 F2        -21.5303    18.8563   -22.2007 F          1  LIG1  -0.1500
     29 H4        -13.4160    21.3887   -18.6436 H          1  LIG1   0.0700
     30 H5        -12.5027    19.8798   -18.4033 H          1  LIG1   0.0700
     31 H6        -14.1481    19.8260   -19.0801 H          1  LIG1   0.0900
     32 H7        -13.4136    20.7205   -16.2557 H          1  LIG1   0.0800
     33 H8        -15.0589    20.6667   -16.9325 H          1  LIG1   0.0800
     34 H9        -16.0288    12.3360   -15.5342 H          1  LIG1   0.1300
     35 H10       -15.3236    10.6550   -13.8807 H          1  LIG1   0.1400
     36 H11       -13.8169    11.2911   -12.0416 H          1  LIG1   0.1400
     37 H12       -13.0122    13.6090   -11.8497 H          1  LIG1   0.1400
     38 H13       -13.7064    15.2959   -13.5020 H          1  LIG1   0.1500
     39 H14       -16.6050    13.7028   -16.8643 H          1  LIG1   0.2000
     40 H15       -16.6582    16.8573   -19.1020 H          1  LIG1   0.1400
     41 H16       -17.1688    15.1523   -19.1043 H          1  LIG1   0.1500
     42 H17       -18.8199    17.5059   -19.9147 H          1  LIG1   0.1400
     43 H18       -19.3307    15.8008   -19.9169 H          1  LIG1   0.1400
     44 H19       -21.1522    16.3446   -18.3247 H          1  LIG1   0.1000
     45 H20       -20.6415    18.0497   -18.3225 H          1  LIG1   0.1000
     46 H21       -23.6025    18.1391   -20.6359 H          1  LIG1   0.1300
     47 H22       -22.8893    18.8122   -19.0740 H          1  LIG1   0.1300
@<TRIPOS>BOND
     1    1    2 1
     2    1   29 1
     3    1   30 1
     4    1   31 1
     5    2    3 1
     6    2   32 1
     7    2   33 1
     8    3    4 1
     9    4    5 2
    10    4    6 1
    11    6   16 1
    12    6    7 2
    13    7    8 1
    14    8    9 1
    15    8   15 1
    16    9   14 ar
    17    9   10 ar
    18   10   11 ar
    19   10   34 1
    20   11   12 ar
    21   11   35 1
    22   12   13 ar
    23   12   36 1
    24   13   14 ar
    25   13   37 1
    26   14   38 1
    27   15   16 2
    28   15   39 1
    29   16   17 1
    30   17   18 1
    31   17   40 1
    32   17   41 1
    33   18   19 1
    34   18   20 1
    35   18   21 1
    36   21   22 1
    37   21   42 1
    38   21   43 1
    39   22   23 1
    40   22   44 1
    41   22   45 1
    42   23   24 1
    43   23   26 1
    44   23   25 1
    45   25   26 1
    46   25   46 1
    47   25   47 1
    48   26   27 1
    49   26   28 1
##########                 Name:     ZINC000049492058
##########          Protonation:                 none
##########               SMILES:   CC1=CC=CC(NC(=O)[C@H](C)[N@@H+](C)CC2CCCC2)=C1
##########            Long Name:   NO_LONG_NAME
##########          FlexRecCode: 1
##########               Number:                 3703
##########   Ligand Source File: /nfs/db/export/3D/CG/ADMO/CGADMO.xabz.db2.gz
##########                 Rank:                    1
##########               Setnum:                   38
##########             Matchnum:                    1
##########                Cloud:                    1
##########        Electrostatic:           -40.497303
##########                 Gist:             0.000000
##########        Van der Waals:           -28.135826
##########  Ligand Polar Desolv:            13.600209
########## Ligand Apolar Desolv:            -5.540353
##########      Internal Energy:             0.000000
##########      Receptor Energy:             0.000000
########## Receptor Desolvation:             0.000000
########## Receptor Hydrophobic:             0.000000
##########         Total Energy:           -60.573277
##########        Ligand Charge:             1.000000
##########            Arbitrary:    +999.9990
##########        Ligand Energy:             0.000000

@<TRIPOS>MOLECULE
 ZINC000049492058      none
   47    48     0     0     0



@<TRIPOS>ATOM
      1 C1        -13.0791    13.9078   -12.9331 C.3        1  LIG1  -0.1200
      2 C2        -14.2870    13.3741   -13.6592 C.ar       1  LIG1  -0.0600
      3 C3        -14.9027    12.2173   -13.2181 C.ar       1  LIG1  -0.1200
      4 C4        -16.0111    11.7240   -13.8820 C.ar       1  LIG1  -0.0900
      5 C5        -16.5066    12.3861   -14.9879 C.ar       1  LIG1  -0.1400
      6 C6        -15.8907    13.5485   -15.4333 C.ar       1  LIG1   0.1200
      7 N1        -16.3905    14.2218   -16.5534 N.am       1  LIG1  -0.6400
      8 C7        -16.2521    15.5587   -16.6535 C.2        1  LIG1   0.5000
      9 O1        -15.6941    16.1781   -15.7725 O.2        1  LIG1  -0.5000
     10 C8        -16.7904    16.2840   -17.8598 C.3        1  LIG1   0.0100
     11 H1        -16.7594    15.6222   -18.7254 H          1  LIG1   0.1600
     12 C9        -15.9352    17.5226   -18.1338 C.3        1  LIG1  -0.1800
     13 N2        -18.1782    16.6935   -17.6059 N.4        1  LIG1  -0.3700
     14 H2        -18.7422    15.8765   -17.4252 H          1  LIG1   0.4300
     15 C10       -18.2198    17.5852   -16.4392 C.3        1  LIG1  -0.0700
     16 C11       -18.7029    17.4006   -18.7817 C.3        1  LIG1  -0.0100
     17 C12       -20.2324    17.3881   -18.7436 C.3        1  LIG1  -0.1200
     18 C13       -20.8121    18.0122   -20.0373 C.3        1  LIG1  -0.1400
     19 C14       -22.2279    17.3887   -20.1129 C.3        1  LIG1  -0.1300
     20 C15       -22.0296    15.9392   -19.6237 C.3        1  LIG1  -0.1300
     21 C16       -20.7609    15.9388   -18.7530 C.3        1  LIG1  -0.1100
     22 C17       -14.7811    14.0439   -14.7615 C.ar       1  LIG1  -0.1100
     23 H3        -12.8385    13.2513   -12.0969 H          1  LIG1   0.0800
     24 H4        -12.2322    13.9491   -13.6181 H          1  LIG1   0.0700
     25 H5        -13.2931    14.9090   -12.5591 H          1  LIG1   0.0700
     26 H6        -14.5170    11.6977   -12.3534 H          1  LIG1   0.1300
     27 H7        -16.4893    10.8199   -13.5353 H          1  LIG1   0.1300
     28 H8        -17.3719    12.0000   -15.5062 H          1  LIG1   0.1300
     29 H9        -16.8368    13.7264   -17.2580 H          1  LIG1   0.4200
     30 H10       -16.3246    18.0472   -19.0064 H          1  LIG1   0.1100
     31 H11       -15.9660    18.1843   -17.2683 H          1  LIG1   0.1000
     32 H12       -14.9055    17.2187   -18.3223 H          1  LIG1   0.0900
     33 H13       -19.2496    17.8890   -16.2507 H          1  LIG1   0.1300
     34 H14       -17.8305    17.0604   -15.5667 H          1  LIG1   0.1400
     35 H15       -17.6106    18.4676   -16.6343 H          1  LIG1   0.1300
     36 H16       -18.3477    18.4311   -18.7744 H          1  LIG1   0.1300
     37 H17       -18.3580    16.9037   -19.6884 H          1  LIG1   0.1300
     38 H18       -20.5956    17.9209   -17.8647 H          1  LIG1   0.1000
     39 H19       -20.8719    19.0970   -19.9497 H          1  LIG1   0.0800
     40 H20       -20.2171    17.7258   -20.9045 H          1  LIG1   0.0800
     41 H21       -22.9152    17.9223   -19.4563 H          1  LIG1   0.0700
     42 H22       -22.5946    17.3981   -21.1393 H          1  LIG1   0.0800
     43 H23       -22.8888    15.6241   -19.0316 H          1  LIG1   0.0700
     44 H24       -21.8980    15.2723   -20.4757 H          1  LIG1   0.0700
     45 H25       -20.0135    15.2717   -19.1827 H          1  LIG1   0.0700
     46 H26       -21.0043    15.6235   -17.7385 H          1  LIG1   0.0800
     47 H27       -14.3000    14.9477   -15.1055 H          1  LIG1   0.1400
@<TRIPOS>BOND
     1    1    2 1
     2    1   23 1
     3    1   24 1
     4    1   25 1
     5    2   22 ar
     6    2    3 ar
     7    3    4 ar
     8    3   26 1
     9    4    5 ar
    10    4   27 1
    11    5    6 ar
    12    5   28 1
    13    6    7 1
    14    6   22 ar
    15    7    8 am
    16    7   29 1
    17    8    9 2
    18    8   10 1
    19   10   11 1
    20   10   12 1
    21   10   13 1
    22   12   30 1
    23   12   31 1
    24   12   32 1
    25   13   14 1
    26   13   15 1
    27   13   16 1
    28   15   33 1
    29   15   34 1
    30   15   35 1
    31   16   17 1
    32   16   36 1
    33   16   37 1
    34   17   21 1
    35   17   18 1
    36   17   38 1
    37   18   19 1
    38   18   39 1
    39   18   40 1
    40   19   20 1
    41   19   41 1
    42   19   42 1
    43   20   21 1
    44   20   43 1
    45   20   44 1
    46   21   45 1
    47   21   46 1
    48   22   47 1
##########                 Name:     ZINC000623977238
##########          Protonation:                 none
##########               SMILES:   COC1=CC=CC=C1[C@@H](CO)NC1=[NH+]C(N)=NC(N)=N1
##########            Long Name:   NO_LONG_NAME
##########          FlexRecCode: 1
##########               Number:                 9023
##########   Ligand Source File: /nfs/db/export/3D/CB/ADMO/CBADMO.xdw.db2.gz
##########                 Rank:                    1
##########               Setnum:                   27
##########             Matchnum:                    1
##########                Cloud:                    1
##########        Electrostatic:           -39.887234
##########                 Gist:             0.000000
##########        Van der Waals:           -27.775965
##########  Ligand Polar Desolv:            10.045628
########## Ligand Apolar Desolv:            -2.730027
##########      Internal Energy:             0.000000
##########      Receptor Energy:             0.000000
########## Receptor Desolvation:             0.000000
########## Receptor Hydrophobic:             0.000000
##########         Total Energy:           -60.347599
##########        Ligand Charge:             1.000000
##########            Arbitrary:    +999.9990
##########        Ligand Energy:             0.000000

@<TRIPOS>MOLECULE
 ZINC000623977238      none
   37    38     0     0     0



@<TRIPOS>ATOM
      1 C1        -22.1560    15.5038   -18.3709 C.3        1  LIG1   0.0200
      2 O1        -21.8215    16.8445   -18.0063 O.3        1  LIG1  -0.3300
      3 C2        -21.6986    17.7461   -19.0158 C.ar       1  LIG1   0.1400
      4 C3        -22.8015    18.4764   -19.4331 C.ar       1  LIG1  -0.2000
      5 C4        -22.6738    19.3926   -20.4594 C.ar       1  LIG1  -0.0600
      6 C5        -21.4483    19.5816   -21.0704 C.ar       1  LIG1  -0.1500
      7 C6        -20.3472    18.8543   -20.6565 C.ar       1  LIG1  -0.0600
      8 C7        -20.4683    17.9416   -19.6268 C.ar       1  LIG1  -0.1400
      9 C8        -19.2680    17.1498   -19.1759 C.3        1  LIG1   0.1800
     10 H1        -19.5580    16.4795   -18.3667 H          1  LIG1   0.1100
     11 C9        -18.7281    16.3293   -20.3490 C.3        1  LIG1   0.0600
     12 O2        -17.9237    15.2583   -19.8512 O.3        1  LIG1  -0.5600
     13 N1        -18.2283    18.0666   -18.7018 N.pl3      1  LIG1  -0.6500
     14 C10       -17.3503    17.6638   -17.7160 C.ar       1  LIG1   0.7000
     15 N2        -17.4445    16.4422   -17.2008 N.ar       1  LIG1  -0.6400
     16 H2        -18.1304    15.8337   -17.5176 H          1  LIG1   0.4400
     17 C11       -16.5984    16.0540   -16.2516 C.ar       1  LIG1   0.7000
     18 N3        -16.6963    14.7856   -15.7165 N.pl3      1  LIG1  -0.7800
     19 N4        -15.6581    16.8875   -15.8180 N.ar       1  LIG1  -0.6200
     20 C12       -15.5638    18.1094   -16.3335 C.ar       1  LIG1   0.6900
     21 N5        -14.5872    18.9745   -15.8836 N.pl3      1  LIG1  -0.7500
     22 N6        -16.4068    18.4958   -17.2858 N.ar       1  LIG1  -0.6200
     23 H3        -22.2228    14.8891   -17.4734 H          1  LIG1   0.1100
     24 H4        -23.1153    15.4967   -18.8884 H          1  LIG1   0.0600
     25 H5        -21.3850    15.1032   -19.0292 H          1  LIG1   0.0600
     26 H6        -23.7594    18.3287   -18.9566 H          1  LIG1   0.1400
     27 H7        -23.5322    19.9616   -20.7847 H          1  LIG1   0.1300
     28 H8        -21.3505    20.2980   -21.8726 H          1  LIG1   0.1300
     29 H9        -19.3909    19.0035   -21.1356 H          1  LIG1   0.1300
     30 H10       -19.5614    15.9221   -20.9216 H          1  LIG1   0.0500
     31 H11       -18.1236    16.9691   -20.9922 H          1  LIG1   0.0800
     32 H12       -18.3976    14.6477   -19.2701 H          1  LIG1   0.3900
     33 H13       -18.1570    18.9566   -19.0807 H          1  LIG1   0.4400
     34 H14       -17.3823    14.1773   -16.0330 H          1  LIG1   0.4300
     35 H15       -16.0790    14.5024   -15.0239 H          1  LIG1   0.4500
     36 H16       -13.9695    18.6912   -15.1915 H          1  LIG1   0.4400
     37 H17       -14.5184    19.8660   -16.2597 H          1  LIG1   0.4400
@<TRIPOS>BOND
     1    1    2 1
     2    1   23 1
     3    1   24 1
     4    1   25 1
     5    2    3 1
     6    3    8 ar
     7    3    4 ar
     8    4    5 ar
     9    4   26 1
    10    5    6 ar
    11    5   27 1
    12    6    7 ar
    13    6   28 1
    14    7    8 ar
    15    7   29 1
    16    8    9 1
    17    9   10 1
    18    9   11 1
    19    9   13 1
    20   11   12 1
    21   11   30 1
    22   11   31 1
    23   12   32 1
    24   13   14 1
    25   13   33 1
    26   14   22 ar
    27   14   15 ar
    28   15   16 1
    29   15   17 ar
    30   17   18 1
    31   17   19 ar
    32   18   34 1
    33   18   35 1
    34   19   20 ar
    35   20   21 1
    36   20   22 ar
    37   21   36 1
    38   21   37 1
##########                 Name:     ZINC000562362770
##########          Protonation:                 none
##########               SMILES:   N#CC1=CC=C(O[C@H]2CC[N@@H+](CCOC3CCCCCC3)C2)N=C1
##########            Long Name:   NO_LONG_NAME
##########          FlexRecCode: 1
##########               Number:                12156
##########   Ligand Source File: /nfs/db/export/3D/EG/EDMO/EGEDMO.xbs.db2.gz
##########                 Rank:                    1
##########               Setnum:                  106
##########             Matchnum:                    1
##########                Cloud:                    1
##########        Electrostatic:           -38.821411
##########                 Gist:             0.000000
##########        Van der Waals:           -33.243523
##########  Ligand Polar Desolv:            16.913786
########## Ligand Apolar Desolv:            -5.286946
##########      Internal Energy:             0.000000
##########      Receptor Energy:             0.000000
########## Receptor Desolvation:             0.000000
########## Receptor Hydrophobic:             0.000000
##########         Total Energy:           -60.438095
##########        Ligand Charge:             1.000000
##########            Arbitrary:    +999.9990
##########        Ligand Energy:             0.000000

@<TRIPOS>MOLECULE
 ZINC000562362770      none
   52    54     0     0     0



@<TRIPOS>ATOM
      1 N1        -14.1709     9.5503   -12.1669 N.1        1  LIG1  -0.3800
      2 C1        -14.3632    10.5811   -12.6038 C.1        1  LIG1   0.2400
      3 C2        -14.6054    11.8805   -13.1548 C.ar       1  LIG1  -0.1000
      4 C3        -14.1014    13.0269   -12.5229 C.ar       1  LIG1   0.0100
      5 C4        -14.3616    14.2570   -13.0924 C.ar       1  LIG1  -0.1800
      6 C5        -15.1085    14.3198   -14.2641 C.ar       1  LIG1   0.3300
      7 O1        -15.3669    15.5252   -14.8276 O.3        1  LIG1  -0.2800
      8 C6        -16.5864    15.6499   -15.5621 C.3        1  LIG1   0.0700
      9 H1        -17.3502    14.9881   -15.1540 H          1  LIG1   0.1300
     10 C7        -17.0767    17.1160   -15.5634 C.3        1  LIG1  -0.1700
     11 C8        -17.6160    17.3584   -16.9853 C.3        1  LIG1   0.0100
     12 N2        -17.4648    16.0889   -17.7290 N.4        1  LIG1  -0.3900
     13 H2        -18.3156    15.5493   -17.6728 H          1  LIG1   0.4300
     14 C9        -17.1287    16.3612   -19.1328 C.3        1  LIG1   0.0000
     15 C10       -18.4006    16.7282   -19.8999 C.3        1  LIG1   0.0300
     16 O2        -18.9896    17.8923   -19.3166 O.3        1  LIG1  -0.3900
     17 C11       -20.3717    18.0661   -19.6348 C.3        1  LIG1   0.0900
     18 C12       -20.5385    18.1640   -21.1270 C.3        1  LIG1  -0.1400
     19 C13       -21.6817    19.1144   -21.5312 C.3        1  LIG1  -0.1200
     20 C14       -22.9319    18.9562   -20.6450 C.3        1  LIG1  -0.1300
     21 C15       -23.2471    17.5156   -20.3459 C.3        1  LIG1  -0.1200
     22 C16       -22.5963    17.1410   -18.9987 C.3        1  LIG1  -0.1200
     23 C17       -21.1762    16.8505   -19.1304 C.3        1  LIG1  -0.1100
     24 C18       -16.3531    15.3567   -17.0655 C.3        1  LIG1   0.0000
     25 N3        -15.5704    13.2191   -14.8374 N.ar       1  LIG1  -0.5400
     26 C19       -15.3417    12.0252   -14.3318 C.ar       1  LIG1   0.2000
     27 H3        -13.5245    12.9491   -11.6133 H          1  LIG1   0.1600
     28 H4        -13.9896    15.1609   -12.6330 H          1  LIG1   0.1600
     29 H5        -17.8714    17.2498   -14.8294 H          1  LIG1   0.1100
     30 H6        -16.2482    17.7922   -15.3526 H          1  LIG1   0.1100
     31 H7        -18.6683    17.6394   -16.9405 H          1  LIG1   0.1400
     32 H8        -17.0394    18.1449   -17.4721 H          1  LIG1   0.1400
     33 H9        -16.4222    17.1897   -19.1832 H          1  LIG1   0.1400
     34 H10       -16.6796    15.4733   -19.5777 H          1  LIG1   0.1400
     35 H11       -18.1512    16.9303   -20.9415 H          1  LIG1   0.1000
     36 H12       -19.1071    15.8997   -19.8496 H          1  LIG1   0.0700
     37 H13       -20.7451    18.9741   -19.1613 H          1  LIG1   0.0700
     38 H14       -19.6076    18.5266   -21.5628 H          1  LIG1   0.0600
     39 H15       -20.7484    17.1709   -21.5243 H          1  LIG1   0.0700
     40 H16       -21.3267    20.1423   -21.4580 H          1  LIG1   0.0600
     41 H17       -21.9570    18.9128   -22.5665 H          1  LIG1   0.0700
     42 H18       -22.7670    19.4836   -19.7054 H          1  LIG1   0.0600
     43 H19       -23.7845    19.4055   -21.1543 H          1  LIG1   0.0700
     44 H20       -24.3271    17.3831   -20.2802 H          1  LIG1   0.0700
     45 H21       -22.8451    16.8812   -21.1359 H          1  LIG1   0.0700
     46 H22       -22.7238    17.9700   -18.3026 H          1  LIG1   0.0600
     47 H23       -23.1003    16.2628   -18.5951 H          1  LIG1   0.0700
     48 H24       -21.0481    16.0266   -19.8325 H          1  LIG1   0.0700
     49 H25       -20.7863    16.5477   -18.1587 H          1  LIG1   0.0700
     50 H26       -15.3883    15.7497   -17.3859 H          1  LIG1   0.1500
     51 H27       -16.4211    14.2880   -17.2688 H          1  LIG1   0.1500
     52 H28       -15.7349    11.1500   -14.8277 H          1  LIG1   0.1800
@<TRIPOS>BOND
     1    1    2 3
     2    2    3 1
     3    3   26 ar
     4    3    4 ar
     5    4    5 ar
     6    4   27 1
     7    5    6 ar
     8    5   28 1
     9    6    7 1
    10    6   25 ar
    11    7    8 1
    12    8    9 1
    13    8   24 1
    14    8   10 1
    15   10   11 1
    16   10   29 1
    17   10   30 1
    18   11   12 1
    19   11   31 1
    20   11   32 1
    21   12   13 1
    22   12   14 1
    23   12   24 1
    24   14   15 1
    25   14   33 1
    26   14   34 1
    27   15   16 1
    28   15   35 1
    29   15   36 1
    30   16   17 1
    31   17   23 1
    32   17   18 1
    33   17   37 1
    34   18   19 1
    35   18   38 1
    36   18   39 1
    37   19   20 1
    38   19   40 1
    39   19   41 1
    40   20   21 1
    41   20   42 1
    42   20   43 1
    43   21   22 1
    44   21   44 1
    45   21   45 1
    46   22   23 1
    47   22   46 1
    48   22   47 1
    49   23   48 1
    50   23   49 1
    51   24   50 1
    52   24   51 1
    53   25   26 ar
    54   26   52 1
##########                 Name:     ZINC000459683150
##########          Protonation:                 none
##########               SMILES:   CC1=C(CNC(=O)C[N@H+]2CC3(CCC3)[C@H]3COC[C@@H]32)SC=C1
##########            Long Name:   NO_LONG_NAME
##########          FlexRecCode: 1
##########               Number:                11320
##########   Ligand Source File: /nfs/db/export/3D/DE/ADMO/DEADMO.xaai.db2.gz
##########                 Rank:                    1
##########               Setnum:                  140
##########             Matchnum:                    1
##########                Cloud:                    1
##########        Electrostatic:           -43.159046
##########                 Gist:             0.000000
##########        Van der Waals:           -29.102543
##########  Ligand Polar Desolv:            15.627963
########## Ligand Apolar Desolv:            -4.109764
##########      Internal Energy:             0.000000
##########      Receptor Energy:             0.000000
########## Receptor Desolvation:             0.000000
########## Receptor Hydrophobic:             0.000000
##########         Total Energy:           -60.743389
##########        Ligand Charge:             1.000000
##########            Arbitrary:    +999.9990
##########        Ligand Energy:             0.000000

@<TRIPOS>MOLECULE
 ZINC000459683150      none
   47    50     0     0     0



@<TRIPOS>ATOM
      1 C1        -13.6531    15.2179   -12.7378 C.3        1  LIG1  -0.1000
      2 C2        -14.4120    14.1203   -13.4383 C.2        1  LIG1  -0.0600
      3 C3        -15.1744    14.3459   -14.5093 C.2        1  LIG1  -0.2400
      4 C4        -15.3839    15.6892   -15.1592 C.3        1  LIG1   0.2000
      5 N1        -16.8074    15.8737   -15.4514 N.am       1  LIG1  -0.7000
      6 C5        -17.2334    17.0102   -16.0375 C.2        1  LIG1   0.5000
      7 O1        -16.4382    17.8802   -16.3228 O.2        1  LIG1  -0.5300
      8 C6        -18.6979    17.1999   -16.3380 C.3        1  LIG1  -0.0300
      9 N2        -18.9924    16.6866   -17.6826 N.4        1  LIG1  -0.3600
     10 H1        -18.7712    15.7042   -17.7456 H          1  LIG1   0.4300
     11 C7        -20.4332    16.9325   -18.0430 C.3        1  LIG1   0.0300
     12 C8        -20.4442    17.2109   -19.5699 C.3        1  LIG1  -0.0900
     13 C9        -21.5607    16.5024   -20.3352 C.3        1  LIG1  -0.1200
     14 C10       -22.4083    17.7650   -20.0946 C.3        1  LIG1  -0.1400
     15 C11       -21.0843    18.5404   -19.9666 C.3        1  LIG1  -0.1300
     16 C12       -19.0320    16.9575   -19.9899 C.3        1  LIG1  -0.1200
     17 H2        -18.8744    15.8880   -20.1291 H          1  LIG1   0.1100
     18 C13       -18.2420    17.7254   -21.0115 C.3        1  LIG1   0.0600
     19 O2        -16.8819    17.7614   -20.4963 O.3        1  LIG1  -0.3500
     20 C14       -16.8666    17.1940   -19.1514 C.3        1  LIG1   0.0700
     21 C15       -18.2747    17.4368   -18.6839 C.3        1  LIG1  -0.0500
     22 H3        -18.4342    18.5025   -18.5199 H          1  LIG1   0.1600
     23 S1        -15.8971    12.8354   -15.0474 S.3        1  LIG1   0.1200
     24 C16       -15.0998    11.9566   -13.7492 C.2        1  LIG1  -0.1900
     25 C17       -14.3662    12.8008   -13.0223 C.2        1  LIG1  -0.1400
     26 H4        -13.8406    16.1669   -13.2400 H          1  LIG1   0.0700
     27 H5        -13.9836    15.2838   -11.7013 H          1  LIG1   0.0700
     28 H6        -12.5861    14.9968   -12.7656 H          1  LIG1   0.0800
     29 H7        -15.0466    16.4759   -14.4843 H          1  LIG1   0.0900
     30 H8        -14.8134    15.7370   -16.0867 H          1  LIG1   0.1000
     31 H9        -17.4436    15.1779   -15.2232 H          1  LIG1   0.4100
     32 H10       -19.2929    16.6571   -15.6036 H          1  LIG1   0.1600
     33 H11       -18.9437    18.2608   -16.2923 H          1  LIG1   0.1600
     34 H12       -21.0332    16.0512   -17.8169 H          1  LIG1   0.1500
     35 H13       -20.8145    17.7974   -17.5001 H          1  LIG1   0.1400
     36 H14       -21.3274    16.3257   -21.3852 H          1  LIG1   0.1000
     37 H15       -21.9432    15.6158   -19.8296 H          1  LIG1   0.0800
     38 H16       -23.0050    18.0607   -20.9576 H          1  LIG1   0.0900
     39 H17       -22.9859    17.7331   -19.1708 H          1  LIG1   0.0900
     40 H18       -21.0865    19.2808   -19.1666 H          1  LIG1   0.0800
     41 H19       -20.7168    18.9378   -20.9127 H          1  LIG1   0.1000
     42 H20       -18.2684    17.2127   -21.9730 H          1  LIG1   0.1000
     43 H21       -18.6353    18.7371   -21.1108 H          1  LIG1   0.0900
     44 H22       -16.6380    16.1288   -19.1841 H          1  LIG1   0.0900
     45 H23       -16.1557    17.7234   -18.5170 H          1  LIG1   0.1200
     46 H24       -15.1869    10.8950   -13.5708 H          1  LIG1   0.1700
     47 H25       -13.7867    12.4805   -12.1691 H          1  LIG1   0.1500
@<TRIPOS>BOND
     1    1    2 1
     2    1   26 1
     3    1   27 1
     4    1   28 1
     5    2   25 1
     6    2    3 2
     7    3    4 1
     8    3   23 1
     9    4    5 1
    10    4   29 1
    11    4   30 1
    12    5    6 am
    13    5   31 1
    14    6    7 2
    15    6    8 1
    16    8    9 1
    17    8   32 1
    18    8   33 1
    19    9   10 1
    20    9   21 1
    21    9   11 1
    22   11   12 1
    23   11   34 1
    24   11   35 1
    25   12   15 1
    26   12   13 1
    27   12   16 1
    28   13   14 1
    29   13   36 1
    30   13   37 1
    31   14   15 1
    32   14   38 1
    33   14   39 1
    34   15   40 1
    35   15   41 1
    36   16   17 1
    37   16   21 1
    38   16   18 1
    39   18   19 1
    40   18   42 1
    41   18   43 1
    42   19   20 1
    43   20   21 1
    44   20   44 1
    45   20   45 1
    46   21   22 1
    47   23   24 1
    48   24   25 2
    49   24   46 1
    50   25   47 1
##########                 Name:     ZINC000525956946
##########          Protonation:                 none
##########               SMILES:   Cc1ccccc1-c1cnc(C[N@@H+]2CC[C@@H](C)[C@H]2CO)o1
##########            Long Name:   NO_LONG_NAME
##########          FlexRecCode: 1
##########               Number:                11968
##########   Ligand Source File: /nfs/db/export/3D/CF/ADMO/CFADMO.xaxb.db2.gz
##########                 Rank:                    1
##########               Setnum:                   23
##########             Matchnum:                    1
##########                Cloud:                    1
##########        Electrostatic:           -41.619129
##########                 Gist:             0.000000
##########        Van der Waals:           -29.157534
##########  Ligand Polar Desolv:            13.487383
########## Ligand Apolar Desolv:            -2.981068
##########      Internal Energy:             0.000000
##########      Receptor Energy:             0.000000
########## Receptor Desolvation:             0.000000
########## Receptor Hydrophobic:             0.000000
##########         Total Energy:           -60.270348
##########        Ligand Charge:             1.000000
##########            Arbitrary:    +999.9990
##########        Ligand Energy:             0.000000

@<TRIPOS>MOLECULE
 ZINC000525956946      none
   44    46     0     0     0



@<TRIPOS>ATOM
      1 C1        -16.6408    12.3721   -15.4650 C.3        1  LIG1  -0.1200
      2 C2        -15.7146    12.6903   -14.3196 C.ar       1  LIG1  -0.0500
      3 C3        -15.3388    11.6980   -13.4384 C.ar       1  LIG1  -0.1200
      4 C4        -14.4887    11.9886   -12.3858 C.ar       1  LIG1  -0.0800
      5 C5        -14.0101    13.2745   -12.2100 C.ar       1  LIG1  -0.1200
      6 C6        -14.3780    14.2764   -13.0847 C.ar       1  LIG1  -0.0800
      7 C7        -15.2306    13.9888   -14.1514 C.ar       1  LIG1  -0.0600
      8 C8        -15.6288    15.0572   -15.0922 C.2        1  LIG1   0.0700
      9 C9        -14.8021    15.7901   -15.8814 C.2        1  LIG1  -0.0200
     10 N1        -15.5635    16.6468   -16.5781 N.2        1  LIG1  -0.4200
     11 C10       -16.8118    16.4671   -16.2480 C.2        1  LIG1   0.0900
     12 C11       -17.9833    17.2330   -16.8067 C.3        1  LIG1   0.1100
     13 N2        -18.4960    16.5433   -17.9980 N.4        1  LIG1  -0.3900
     14 H1        -18.7932    15.6115   -17.7503 H          1  LIG1   0.4300
     15 C12       -17.4354    16.4705   -19.0256 C.3        1  LIG1  -0.0100
     16 C13       -18.1786    16.6415   -20.3739 C.3        1  LIG1  -0.1300
     17 C14       -19.2689    17.6805   -20.0013 C.3        1  LIG1  -0.0900
     18 H2        -18.8657    18.6925   -20.0394 H          1  LIG1   0.1000
     19 C15       -20.4810    17.5479   -20.9254 C.3        1  LIG1  -0.1700
     20 C16       -19.6348    17.2958   -18.5554 C.3        1  LIG1   0.0300
     21 H3        -19.8097    18.1953   -17.9653 H          1  LIG1   0.1500
     22 C17       -20.8887    16.4192   -18.5516 C.3        1  LIG1   0.0500
     23 O1        -21.1925    16.0280   -17.2111 O.3        1  LIG1  -0.5700
     24 O2        -16.8861    15.4878   -15.3364 O.3        1  LIG1  -0.1800
     25 H4        -16.9100    11.3164   -15.4320 H          1  LIG1   0.0800
     26 H5        -17.5420    12.9796   -15.3831 H          1  LIG1   0.0800
     27 H6        -16.1402    12.5901   -16.4084 H          1  LIG1   0.0600
     28 H7        -15.7089    10.6919   -13.5700 H          1  LIG1   0.1400
     29 H8        -14.1980    11.2081   -11.6982 H          1  LIG1   0.1400
     30 H9        -13.3473    13.4950   -11.3863 H          1  LIG1   0.1400
     31 H10       -14.0035    15.2799   -12.9464 H          1  LIG1   0.1300
     32 H11       -13.7274    15.7000   -15.9376 H          1  LIG1   0.2000
     33 H12       -18.7702    17.2926   -16.0546 H          1  LIG1   0.1500
     34 H13       -17.6634    18.2389   -17.0785 H          1  LIG1   0.1700
     35 H14       -16.7146    17.2760   -18.8848 H          1  LIG1   0.1400
     36 H15       -16.9361    15.5024   -18.9876 H          1  LIG1   0.1300
     37 H16       -17.5108    17.0341   -21.1408 H          1  LIG1   0.1100
     38 H17       -18.6282    15.7015   -20.6938 H          1  LIG1   0.1100
     39 H18       -21.2330    18.2858   -20.6465 H          1  LIG1   0.1000
     40 H19       -20.1716    17.7164   -21.9569 H          1  LIG1   0.0600
     41 H20       -20.9017    16.5468   -20.8313 H          1  LIG1   0.0700
     42 H21       -21.7264    16.9814   -18.9647 H          1  LIG1   0.0700
     43 H22       -20.7130    15.5309   -19.1584 H          1  LIG1   0.1000
     44 H23       -20.4897    15.5227   -16.7801 H          1  LIG1   0.4100
@<TRIPOS>BOND
     1    1    2 1
     2    1   25 1
     3    1   26 1
     4    1   27 1
     5    2    7 ar
     6    2    3 ar
     7    3    4 ar
     8    3   28 1
     9    4    5 ar
    10    4   29 1
    11    5    6 ar
    12    5   30 1
    13    6    7 ar
    14    6   31 1
    15    7    8 1
    16    8   24 1
    17    8    9 2
    18    9   10 1
    19    9   32 1
    20   10   11 2
    21   11   12 1
    22   11   24 1
    23   12   13 1
    24   12   33 1
    25   12   34 1
    26   13   14 1
    27   13   20 1
    28   13   15 1
    29   15   16 1
    30   15   35 1
    31   15   36 1
    32   16   17 1
    33   16   37 1
    34   16   38 1
    35   17   18 1
    36   17   19 1
    37   17   20 1
    38   19   39 1
    39   19   40 1
    40   19   41 1
    41   20   21 1
    42   20   22 1
    43   22   23 1
    44   22   42 1
    45   22   43 1
    46   23   44 1
##########                 Name:     ZINC000347734473
##########          Protonation:                 none
##########               SMILES:   COC1=CC(C[N@@H+]2CC[C@H](NC3=CC(C)=CC=N3)C2)=CC(OC)=C1
##########            Long Name:   NO_LONG_NAME
##########          FlexRecCode: 1
##########               Number:                10517
##########   Ligand Source File: /nfs/db/export/3D/EG/ADRO/EGADRO.xbih.db2.gz
##########                 Rank:                    1
##########               Setnum:                   77
##########             Matchnum:                    1
##########                Cloud:                    1
##########        Electrostatic:           -39.973793
##########                 Gist:             0.000000
##########        Van der Waals:           -31.901756
##########  Ligand Polar Desolv:            18.387196
########## Ligand Apolar Desolv:            -4.697789
##########      Internal Energy:             0.000000
##########      Receptor Energy:             0.000000
########## Receptor Desolvation:             0.000000
########## Receptor Hydrophobic:             0.000000
##########         Total Energy:           -58.186142
##########        Ligand Charge:             1.000000
##########            Arbitrary:    +999.9990
##########        Ligand Energy:             0.000000

@<TRIPOS>MOLECULE
 ZINC000347734473      none
   50    52     0     0     0



@<TRIPOS>ATOM
      1 C1        -19.6569    19.9104   -23.4521 C.3        1  LIG1   0.0200
      2 O1        -18.5846    19.1965   -22.8337 O.3        1  LIG1  -0.3100
      3 C2        -18.9146    18.3156   -21.8528 C.ar       1  LIG1   0.1800
      4 C3        -17.9222    17.5927   -21.2059 C.ar       1  LIG1  -0.1700
      5 C4        -18.2571    16.6969   -20.2086 C.ar       1  LIG1  -0.0800
      6 C5        -17.1775    15.9129   -19.5082 C.3        1  LIG1   0.0500
      7 N1        -17.4210    15.9306   -18.0596 N.4        1  LIG1  -0.3900
      8 H1        -18.3167    15.5175   -17.8472 H          1  LIG1   0.4300
      9 C6        -17.3532    17.3202   -17.5383 C.3        1  LIG1   0.0000
     10 C7        -17.0597    17.1565   -16.0316 C.3        1  LIG1  -0.1700
     11 C8        -16.3889    15.7735   -15.9018 C.3        1  LIG1   0.1400
     12 H2        -16.9874    15.1204   -15.2667 H          1  LIG1   0.1200
     13 N2        -15.0366    15.9131   -15.3557 N.pl3      1  LIG1  -0.7200
     14 C9        -14.4876    14.8916   -14.5893 C.ar       1  LIG1   0.3900
     15 C10       -13.5665    15.1966   -13.5926 C.ar       1  LIG1  -0.2400
     16 C11       -13.0284    14.1702   -12.8369 C.ar       1  LIG1   0.0000
     17 C12       -12.0279    14.4584   -11.7474 C.3        1  LIG1  -0.1200
     18 C13       -13.4312    12.8688   -13.1047 C.ar       1  LIG1  -0.2200
     19 C14       -14.3497    12.6383   -14.1094 C.ar       1  LIG1   0.1600
     20 N3        -14.8503    13.6375   -14.8108 N.ar       1  LIG1  -0.5400
     21 C15       -16.3352    15.2151   -17.3414 C.3        1  LIG1  -0.0100
     22 C16       -19.5802    16.5192   -19.8522 C.ar       1  LIG1  -0.1700
     23 C17       -20.5763    17.2397   -20.4961 C.ar       1  LIG1   0.1800
     24 O2        -21.8775    17.0644   -20.1452 O.3        1  LIG1  -0.3100
     25 C18       -22.1477    16.1223   -19.1054 C.3        1  LIG1   0.0200
     26 C19       -20.2425    18.1426   -21.4937 C.ar       1  LIG1  -0.2700
     27 H3        -19.2566    20.5780   -24.2151 H          1  LIG1   0.1100
     28 H4        -20.3461    19.2031   -23.9135 H          1  LIG1   0.0600
     29 H5        -20.1861    20.4949   -22.6994 H          1  LIG1   0.0600
     30 H6        -16.8873    17.7302   -21.4826 H          1  LIG1   0.1400
     31 H7        -17.1862    14.8832   -19.8655 H          1  LIG1   0.1400
     32 H8        -16.2071    16.3624   -19.7190 H          1  LIG1   0.1400
     33 H9        -16.5477    17.8699   -18.0251 H          1  LIG1   0.1300
     34 H10       -18.3058    17.8288   -17.6870 H          1  LIG1   0.1400
     35 H11       -16.3822    17.9395   -15.6906 H          1  LIG1   0.1200
     36 H12       -17.9875    17.1823   -15.4601 H          1  LIG1   0.1100
     37 H13       -14.5243    16.7184   -15.5290 H          1  LIG1   0.4100
     38 H14       -13.2752    16.2206   -13.4112 H          1  LIG1   0.1300
     39 H15       -11.7275    13.5238   -11.2736 H          1  LIG1   0.0800
     40 H16       -11.1527    14.9455   -12.1773 H          1  LIG1   0.0800
     41 H17       -12.4799    15.1142   -11.0032 H          1  LIG1   0.0700
     42 H18       -13.0297    12.0451   -12.5332 H          1  LIG1   0.1400
     43 H19       -14.6659    11.6276   -14.3209 H          1  LIG1   0.1600
     44 H20       -16.5198    14.1408   -17.3395 H          1  LIG1   0.1500
     45 H21       -15.3705    15.4351   -17.7987 H          1  LIG1   0.1400
     46 H22       -19.8395    15.8187   -19.0721 H          1  LIG1   0.1400
     47 H23       -23.2217    16.0791   -18.9242 H          1  LIG1   0.1100
     48 H24       -21.7901    15.1372   -19.4056 H          1  LIG1   0.0600
     49 H25       -21.6375    16.4316   -18.1932 H          1  LIG1   0.0600
     50 H26       -21.0162    18.7043   -21.9960 H          1  LIG1   0.1500
@<TRIPOS>BOND
     1    1    2 1
     2    1   27 1
     3    1   28 1
     4    1   29 1
     5    2    3 1
     6    3   26 ar
     7    3    4 ar
     8    4    5 ar
     9    4   30 1
    10    5    6 1
    11    5   22 ar
    12    6    7 1
    13    6   31 1
    14    6   32 1
    15    7    8 1
    16    7   21 1
    17    7    9 1
    18    9   10 1
    19    9   33 1
    20    9   34 1
    21   10   11 1
    22   10   35 1
    23   10   36 1
    24   11   12 1
    25   11   13 1
    26   11   21 1
    27   13   14 1
    28   13   37 1
    29   14   20 ar
    30   14   15 ar
    31   15   16 ar
    32   15   38 1
    33   16   17 1
    34   16   18 ar
    35   17   39 1
    36   17   40 1
    37   17   41 1
    38   18   19 ar
    39   18   42 1
    40   19   20 ar
    41   19   43 1
    42   21   44 1
    43   21   45 1
    44   22   23 ar
    45   22   46 1
    46   23   24 1
    47   23   26 ar
    48   24   25 1
    49   25   47 1
    50   25   48 1
    51   25   49 1
    52   26   50 1
##########                 Name:     ZINC000646211912
##########          Protonation:                 none
##########               SMILES:   C[NH+](C)C[C@H](CO)NC(=O)C1=NN(C2=C(F)C=CC=C2F)C=C1
##########            Long Name:   NO_LONG_NAME
##########          FlexRecCode: 1
##########               Number:                 8999
##########   Ligand Source File: /nfs/db/export/3D/DC/ADRO/DCADRO.xbff.db2.gz
##########                 Rank:                    1
##########               Setnum:                   41
##########             Matchnum:                    1
##########                Cloud:                    1
##########        Electrostatic:           -40.081326
##########                 Gist:             0.000000
##########        Van der Waals:           -30.329029
##########  Ligand Polar Desolv:            15.766795
########## Ligand Apolar Desolv:            -3.488244
##########      Internal Energy:             0.000000
##########      Receptor Energy:             0.000000
########## Receptor Desolvation:             0.000000
########## Receptor Hydrophobic:             0.000000
##########         Total Energy:           -58.131805
##########        Ligand Charge:             1.000000
##########            Arbitrary:    +999.9990
##########        Ligand Energy:             0.000000

@<TRIPOS>MOLECULE
 ZINC000646211912      none
   42    43     0     0     0



@<TRIPOS>ATOM
      1 C1        -19.6310    17.8591   -17.4886 C.3        1  LIG1  -0.0500
      2 N1        -19.4256    16.6777   -18.3371 N.4        1  LIG1  -0.3900
      3 H1        -18.8565    16.0052   -17.8453 H          1  LIG1   0.4200
      4 C2        -20.7257    16.0754   -18.6610 C.3        1  LIG1  -0.0500
      5 C3        -18.7486    17.0778   -19.5779 C.3        1  LIG1  -0.0200
      6 C4        -17.3944    17.7051   -19.2407 C.3        1  LIG1   0.1300
      7 H2        -17.5404    18.7397   -18.9309 H          1  LIG1   0.1300
      8 C5        -16.4920    17.6648   -20.4755 C.3        1  LIG1   0.0600
      9 O1        -17.2633    17.9696   -21.6393 O.3        1  LIG1  -0.5800
     10 N2        -16.7657    16.9533   -18.1517 N.am       1  LIG1  -0.7300
     11 C6        -15.9396    17.5791   -17.2900 C.2        1  LIG1   0.6200
     12 O2        -15.7162    18.7674   -17.4165 O.2        1  LIG1  -0.5100
     13 C7        -15.3060    16.8215   -16.1926 C.2        1  LIG1  -0.0200
     14 N3        -15.4532    15.5351   -15.9415 N.2        1  LIG1  -0.2500
     15 N4        -14.7594    15.2036   -14.9122 N.pl3      1  LIG1  -0.2200
     16 C8        -14.6891    13.9112   -14.3731 C.ar       1  LIG1   0.0600
     17 C9        -13.9084    13.6663   -13.2494 C.ar       1  LIG1   0.1300
     18 F1        -13.2160    14.6737   -12.6742 F          1  LIG1  -0.1200
     19 C10       -13.8417    12.3897   -12.7205 C.ar       1  LIG1  -0.1300
     20 C11       -14.5503    11.3580   -13.3081 C.ar       1  LIG1  -0.0500
     21 C12       -15.3277    11.5973   -14.4262 C.ar       1  LIG1  -0.1400
     22 C13       -15.4046    12.8724   -14.9575 C.ar       1  LIG1   0.1400
     23 F2        -16.1645    13.1053   -16.0500 F          1  LIG1  -0.1100
     24 C14       -14.1035    16.2877   -14.4228 C.2        1  LIG1  -0.0100
     25 C15       -14.4215    17.3377   -15.2159 C.2        1  LIG1  -0.1600
     26 H3        -20.2457    18.5856   -18.0199 H          1  LIG1   0.1300
     27 H4        -20.1332    17.5622   -16.5678 H          1  LIG1   0.1200
     28 H5        -18.6662    18.3060   -17.2484 H          1  LIG1   0.1300
     29 H6        -20.5732    15.1988   -19.2907 H          1  LIG1   0.1200
     30 H7        -21.2281    15.7786   -17.7405 H          1  LIG1   0.1200
     31 H8        -21.3405    16.8020   -19.1924 H          1  LIG1   0.1300
     32 H9        -18.5962    16.2012   -20.2076 H          1  LIG1   0.1500
     33 H10       -19.3633    17.8043   -20.1093 H          1  LIG1   0.1500
     34 H11       -15.6937    18.3991   -20.3662 H          1  LIG1   0.0700
     35 H12       -16.0590    16.6697   -20.5769 H          1  LIG1   0.0700
     36 H13       -17.9932    17.3559   -21.7992 H          1  LIG1   0.4000
     37 H14       -16.9440    16.0051   -18.0508 H          1  LIG1   0.4100
     38 H15       -13.2350    12.1985   -11.8477 H          1  LIG1   0.1600
     39 H16       -14.4963    10.3625   -12.8928 H          1  LIG1   0.1600
     40 H17       -15.8792    10.7887   -14.8827 H          1  LIG1   0.1600
     41 H18       -13.4479    16.3073   -13.5648 H          1  LIG1   0.2100
     42 H19       -14.0779    18.3570   -15.1192 H          1  LIG1   0.1800
@<TRIPOS>BOND
     1    1    2 1
     2    1   26 1
     3    1   27 1
     4    1   28 1
     5    2    3 1
     6    2    4 1
     7    2    5 1
     8    4   29 1
     9    4   30 1
    10    4   31 1
    11    5    6 1
    12    5   32 1
    13    5   33 1
    14    6    7 1
    15    6    8 1
    16    6   10 1
    17    8    9 1
    18    8   34 1
    19    8   35 1
    20    9   36 1
    21   10   11 am
    22   10   37 1
    23   11   12 2
    24   11   13 1
    25   13   25 1
    26   13   14 2
    27   14   15 1
    28   15   16 1
    29   15   24 1
    30   16   22 ar
    31   16   17 ar
    32   17   18 1
    33   17   19 ar
    34   19   20 ar
    35   19   38 1
    36   20   21 ar
    37   20   39 1
    38   21   22 ar
    39   21   40 1
    40   22   23 1
    41   24   25 2
    42   24   41 1
    43   25   42 1
##########                 Name:     ZINC000417995086
##########          Protonation:                 none
##########               SMILES:   C[C@@H]([NH3+])[C@@H]1CCCCN1C(=O)NCCC1=CC=C(Cl)C=C1[N+](=O)[O-]
##########            Long Name:   NO_LONG_NAME
##########          FlexRecCode: 1
##########               Number:                 5583
##########   Ligand Source File: /nfs/db/export/3D/FF/BDRO/FFBDRO.xau.db2.gz
##########                 Rank:                    1
##########               Setnum:                   40
##########             Matchnum:                    1
##########                Cloud:                    1
##########        Electrostatic:           -35.596428
##########                 Gist:             0.000000
##########        Van der Waals:           -31.295980
##########  Ligand Polar Desolv:            12.689817
########## Ligand Apolar Desolv:            -3.913584
##########      Internal Energy:             0.000000
##########      Receptor Energy:             0.000000
########## Receptor Desolvation:             0.000000
########## Receptor Hydrophobic:             0.000000
##########         Total Energy:           -58.116177
##########        Ligand Charge:             1.000000
##########            Arbitrary:    +999.9990
##########        Ligand Energy:             0.000000

@<TRIPOS>MOLECULE
 ZINC000417995086      none
   48    49     0     0     0



@<TRIPOS>ATOM
      1 C1        -22.2936    17.4232   -18.9120 C.3        1  LIG1  -0.1900
      2 C2        -20.7748    17.3344   -18.7502 C.3        1  LIG1   0.0300
      3 H1        -20.4964    17.6609   -17.7482 H          1  LIG1   0.1800
      4 N1        -20.3415    15.9452   -18.9506 N.4        1  LIG1  -0.6200
      5 H2        -20.7551    15.5825   -19.7964 H          1  LIG1   0.4100
      6 H3        -19.3359    15.9143   -19.0280 H          1  LIG1   0.4300
      7 H4        -20.6357    15.3844   -18.1651 H          1  LIG1   0.4300
      8 C3        -20.0982    18.2343   -19.7862 C.3        1  LIG1   0.1400
      9 H5        -20.4184    19.2657   -19.6391 H          1  LIG1   0.1200
     10 C4        -20.4819    17.7733   -21.1958 C.3        1  LIG1  -0.1500
     11 C5        -19.6949    18.5862   -22.2261 C.3        1  LIG1  -0.1200
     12 C6        -18.1961    18.3461   -22.0308 C.3        1  LIG1  -0.1400
     13 C7        -17.7864    18.8136   -20.6307 C.3        1  LIG1   0.1100
     14 N2        -18.6391    18.1457   -19.6376 N.am       1  LIG1  -0.6300
     15 C8        -18.0931    17.4608   -18.6131 C.2        1  LIG1   0.7100
     16 O1        -18.6839    17.3781   -17.5537 O.2        1  LIG1  -0.6200
     17 N3        -16.8921    16.8678   -18.7632 N.am       1  LIG1  -0.7200
     18 C9        -16.2986    16.1235   -17.6496 C.3        1  LIG1   0.1400
     19 C10       -15.4407    17.0675   -16.8049 C.3        1  LIG1  -0.1100
     20 C11       -14.8302    16.3019   -15.6594 C.ar       1  LIG1  -0.0200
     21 C12       -15.0861    14.9512   -15.5170 C.ar       1  LIG1  -0.1000
     22 C13       -14.5259    14.2482   -14.4667 C.ar       1  LIG1  -0.0500
     23 C14       -13.7090    14.8970   -13.5582 C.ar       1  LIG1  -0.0400
     24 Cl1       -13.0047    14.0148   -12.2394 Cl         1  LIG1  -0.0200
     25 C15       -13.4531    16.2493   -13.7014 C.ar       1  LIG1  -0.0400
     26 C16       -14.0095    16.9498   -14.7547 C.ar       1  LIG1  -0.0300
     27 N4        -13.7355    18.3963   -14.9082 N.pl3      1  LIG1   0.0300
     28 O2        -14.2330    19.0157   -15.8314 O.2        1  LIG1  -0.1500
     29 O3        -13.0126    18.9671   -14.1113 O.2        1  LIG1  -0.1600
     30 H6        -22.5720    17.0967   -19.9140 H          1  LIG1   0.0800
     31 H7        -22.7759    16.7822   -18.1739 H          1  LIG1   0.0900
     32 H8        -22.6152    18.4541   -18.7633 H          1  LIG1   0.1000
     33 H9        -20.2456    16.7153   -21.3096 H          1  LIG1   0.0600
     34 H10       -21.5500    17.9266   -21.3504 H          1  LIG1   0.1000
     35 H11       -19.9844    18.2772   -23.2305 H          1  LIG1   0.0800
     36 H12       -19.9129    19.6462   -22.0955 H          1  LIG1   0.0800
     37 H13       -17.9812    17.2828   -22.1368 H          1  LIG1   0.0700
     38 H14       -17.6371    18.9071   -22.7798 H          1  LIG1   0.0900
     39 H15       -16.7430    18.5548   -20.4498 H          1  LIG1   0.0900
     40 H16       -17.9159    19.8932   -20.5533 H          1  LIG1   0.0900
     41 H17       -16.4208    16.9337   -19.6083 H          1  LIG1   0.4100
     42 H18       -17.0910    15.7014   -17.0313 H          1  LIG1   0.0800
     43 H19       -15.6759    15.3191   -18.0412 H          1  LIG1   0.0700
     44 H20       -14.6483    17.4896   -17.4232 H          1  LIG1   0.1200
     45 H21       -16.0634    17.8718   -16.4133 H          1  LIG1   0.0900
     46 H22       -15.7241    14.4448   -16.2261 H          1  LIG1   0.1600
     47 H23       -14.7262    13.1928   -14.3553 H          1  LIG1   0.1600
     48 H24       -12.8158    16.7565   -12.9921 H          1  LIG1   0.1700
@<TRIPOS>BOND
     1    1    2 1
     2    1   30 1
     3    1   31 1
     4    1   32 1
     5    2    3 1
     6    2    4 1
     7    2    8 1
     8    4    5 1
     9    4    6 1
    10    4    7 1
    11    8    9 1
    12    8   14 1
    13    8   10 1
    14   10   11 1
    15   10   33 1
    16   10   34 1
    17   11   12 1
    18   11   35 1
    19   11   36 1
    20   12   13 1
    21   12   37 1
    22   12   38 1
    23   13   14 1
    24   13   39 1
    25   13   40 1
    26   14   15 am
    27   15   16 2
    28   15   17 am
    29   17   18 1
    30   17   41 1
    31   18   19 1
    32   18   42 1
    33   18   43 1
    34   19   20 1
    35   19   44 1
    36   19   45 1
    37   20   26 ar
    38   20   21 ar
    39   21   22 ar
    40   21   46 1
    41   22   23 ar
    42   22   47 1
    43   23   24 1
    44   23   25 ar
    45   25   26 ar
    46   25   48 1
    47   26   27 1
    48   27   28 2
    49   27   29 2
##########                 Name:     ZINC000590202719
##########          Protonation:                 none
##########               SMILES:   C[C@@H](C(=O)NC1=CC=CC(C#N)=C1)[N@@H+]1CC[C@H](CC2CC2)C1
##########            Long Name:   NO_LONG_NAME
##########          FlexRecCode: 1
##########               Number:                 9669
##########   Ligand Source File: /nfs/db/export/3D/CG/EDRO/CGEDRO.xds.db2.gz
##########                 Rank:                    1
##########               Setnum:                  114
##########             Matchnum:                    1
##########                Cloud:                    1
##########        Electrostatic:           -43.833721
##########                 Gist:             0.000000
##########        Van der Waals:           -26.474705
##########  Ligand Polar Desolv:            17.902748
########## Ligand Apolar Desolv:            -5.760162
##########      Internal Energy:             0.000000
##########      Receptor Energy:             0.000000
########## Receptor Desolvation:             0.000000
########## Receptor Hydrophobic:             0.000000
##########         Total Energy:           -58.165840
##########        Ligand Charge:             1.000000
##########            Arbitrary:    +999.9990
##########        Ligand Energy:             0.000000

@<TRIPOS>MOLECULE
 ZINC000590202719      none
   46    48     0     0     0



@<TRIPOS>ATOM
      1 C1        -18.2333    17.6440   -15.7077 C.3        1  LIG1  -0.1800
      2 C2        -17.1936    17.1761   -16.7279 C.3        1  LIG1   0.0100
      3 H1        -16.6455    18.0375   -17.1093 H          1  LIG1   0.1600
      4 C3        -16.2330    16.2227   -16.0652 C.2        1  LIG1   0.5100
      5 O1        -15.0494    16.4845   -16.0249 O.2        1  LIG1  -0.5100
      6 N1        -16.6892    15.0790   -15.5172 N.am       1  LIG1  -0.6400
      7 C4        -15.7971    14.1935   -14.9016 C.ar       1  LIG1   0.1200
      8 C5        -15.6672    12.8948   -15.3785 C.ar       1  LIG1  -0.1000
      9 C6        -14.7871    12.0161   -14.7745 C.ar       1  LIG1  -0.1000
     10 C7        -14.0317    12.4225   -13.6939 C.ar       1  LIG1  -0.0700
     11 C8        -14.1548    13.7258   -13.2067 C.ar       1  LIG1   0.0000
     12 C9        -13.3719    14.1507   -12.0856 C.1        1  LIG1   0.2400
     13 N2        -12.7507    14.4878   -11.1962 N.1        1  LIG1  -0.3900
     14 C10       -15.0391    14.6138   -13.8198 C.ar       1  LIG1  -0.0700
     15 N3        -17.8705    16.4950   -17.8397 N.4        1  LIG1  -0.3800
     16 H2        -18.3834    15.6940   -17.5031 H          1  LIG1   0.4300
     17 C11       -16.8864    16.0847   -18.8741 C.3        1  LIG1  -0.0100
     18 C12       -17.7211    15.9220   -20.1626 C.3        1  LIG1  -0.1400
     19 C13       -18.9645    16.8099   -19.9494 C.3        1  LIG1  -0.1000
     20 H3        -19.8707    16.2046   -19.9752 H          1  LIG1   0.1100
     21 C14       -19.0262    17.9033   -21.0176 C.3        1  LIG1  -0.0800
     22 C15       -20.2650    18.7713   -20.7880 C.3        1  LIG1  -0.1700
     23 C16       -20.7842    19.5888   -21.9724 C.3        1  LIG1  -0.1800
     24 C17       -21.5578    18.3584   -21.4947 C.3        1  LIG1  -0.1800
     25 C18       -18.7787    17.4333   -18.5480 C.3        1  LIG1   0.0000
     26 H4        -18.7814    16.7824   -15.3264 H          1  LIG1   0.1100
     27 H5        -17.7313    18.1494   -14.8828 H          1  LIG1   0.1000
     28 H6        -18.9282    18.3334   -16.1873 H          1  LIG1   0.0900
     29 H7        -17.6357    14.8695   -15.5493 H          1  LIG1   0.4200
     30 H8        -16.2560    12.5706   -16.2239 H          1  LIG1   0.1400
     31 H9        -14.6909    11.0078   -15.1496 H          1  LIG1   0.1500
     32 H10       -13.3457    11.7330   -13.2245 H          1  LIG1   0.1400
     33 H11       -15.1385    15.6229   -13.4479 H          1  LIG1   0.1500
     34 H12       -16.1294    16.8577   -19.0067 H          1  LIG1   0.1300
     35 H13       -16.4203    15.1379   -18.6012 H          1  LIG1   0.1500
     36 H14       -17.1538    16.2664   -21.0272 H          1  LIG1   0.1200
     37 H15       -18.0171    14.8811   -20.2931 H          1  LIG1   0.1000
     38 H16       -18.1317    18.5231   -20.9552 H          1  LIG1   0.0800
     39 H17       -19.0820    17.4442   -22.0047 H          1  LIG1   0.0800
     40 H18       -20.3530    19.2117   -19.7949 H          1  LIG1   0.1100
     41 H19       -21.2136    20.5676   -21.7587 H          1  LIG1   0.1000
     42 H20       -20.2431    19.5084   -22.9153 H          1  LIG1   0.1000
     43 H21       -21.5257    17.4684   -22.1232 H          1  LIG1   0.1000
     44 H22       -22.4962    18.5276   -20.9666 H          1  LIG1   0.1000
     45 H23       -19.7366    17.5021   -18.0325 H          1  LIG1   0.1400
     46 H24       -18.3176    18.4177   -18.6280 H          1  LIG1   0.1400
@<TRIPOS>BOND
     1    1    2 1
     2    1   26 1
     3    1   27 1
     4    1   28 1
     5    2    3 1
     6    2    4 1
     7    2   15 1
     8    4    5 2
     9    4    6 am
    10    6    7 1
    11    6   29 1
    12    7   14 ar
    13    7    8 ar
    14    8    9 ar
    15    8   30 1
    16    9   10 ar
    17    9   31 1
    18   10   11 ar
    19   10   32 1
    20   11   12 1
    21   11   14 ar
    22   12   13 3
    23   14   33 1
    24   15   16 1
    25   15   25 1
    26   15   17 1
    27   17   18 1
    28   17   34 1
    29   17   35 1
    30   18   19 1
    31   18   36 1
    32   18   37 1
    33   19   20 1
    34   19   21 1
    35   19   25 1
    36   21   22 1
    37   21   38 1
    38   21   39 1
    39   22   24 1
    40   22   23 1
    41   22   40 1
    42   23   24 1
    43   23   41 1
    44   23   42 1
    45   24   43 1
    46   24   44 1
    47   25   45 1
    48   25   46 1
##########                 Name:     ZINC000367987410
##########          Protonation:                 none
##########               SMILES:   NC(=O)C[C@@H]1CC[N@@H+](CC2=CC3=CC=CC=C3NC2=O)C1
##########            Long Name:   NO_LONG_NAME
##########          FlexRecCode: 1
##########               Number:                10007
##########   Ligand Source File: /nfs/db/export/3D/CD/ADMO/CDADMO.xaqb.db2.gz
##########                 Rank:                    1
##########               Setnum:                   30
##########             Matchnum:                    1
##########                Cloud:                    1
##########        Electrostatic:           -44.301468
##########                 Gist:             0.000000
##########        Van der Waals:           -29.214254
##########  Ligand Polar Desolv:            17.474285
########## Ligand Apolar Desolv:            -2.134256
##########      Internal Energy:             0.000000
##########      Receptor Energy:             0.000000
########## Receptor Desolvation:             0.000000
########## Receptor Hydrophobic:             0.000000
##########         Total Energy:           -58.175697
##########        Ligand Charge:             1.000000
##########            Arbitrary:    +999.9990
##########        Ligand Energy:             0.000000

@<TRIPOS>MOLECULE
 ZINC000367987410      none
   41    43     0     0     0



@<TRIPOS>ATOM
      1 N1        -22.9198    16.2863   -20.2176 N.am       1  LIG1  -0.8500
      2 C1        -21.7353    16.8496   -19.9067 C.2        1  LIG1   0.5200
      3 O1        -21.6974    17.9814   -19.4728 O.2        1  LIG1  -0.5400
      4 C2        -20.4582    16.0728   -20.0984 C.3        1  LIG1  -0.1500
      5 C3        -19.2682    16.9352   -19.6732 C.3        1  LIG1  -0.0900
      6 H1        -19.2261    17.8435   -20.2741 H          1  LIG1   0.1200
      7 C4        -17.9509    16.1381   -19.8126 C.3        1  LIG1  -0.1300
      8 C5        -17.1474    16.5751   -18.5620 C.3        1  LIG1  -0.0100
      9 N2        -18.1907    16.6908   -17.5112 N.4        1  LIG1  -0.3900
     10 H2        -18.4205    15.7783   -17.1469 H          1  LIG1   0.4300
     11 C6        -17.7236    17.5663   -16.4279 C.3        1  LIG1   0.0700
     12 C7        -16.4719    16.9883   -15.8193 C.2        1  LIG1  -0.2800
     13 C8        -16.4066    15.6633   -15.5392 C.2        1  LIG1   0.0600
     14 C9        -15.1763    15.1330   -14.9489 C.ar       1  LIG1  -0.1600
     15 C10       -15.0492    13.7752   -14.6390 C.ar       1  LIG1  -0.0400
     16 C11       -13.8873    13.3116   -14.0896 C.ar       1  LIG1  -0.1400
     17 C12       -12.8317    14.1764   -13.8361 C.ar       1  LIG1  -0.0400
     18 C13       -12.9348    15.5186   -14.1330 C.ar       1  LIG1  -0.1700
     19 C14       -14.1076    16.0132   -14.6931 C.ar       1  LIG1   0.2000
     20 N3        -14.2382    17.3509   -15.0005 N.am       1  LIG1  -0.6200
     21 C15       -15.3697    17.8273   -15.5484 C.2        1  LIG1   0.5400
     22 O2        -15.4500    19.0157   -15.8070 O.2        1  LIG1  -0.5400
     23 C16       -19.3710    17.2880   -18.1778 C.3        1  LIG1   0.0000
     24 H3        -23.7416    16.7870   -20.0962 H          1  LIG1   0.4100
     25 H4        -22.9499    15.3819   -20.5666 H          1  LIG1   0.4100
     26 H5        -20.4879    15.1690   -19.4899 H          1  LIG1   0.1100
     27 H6        -20.3527    15.8004   -21.1484 H          1  LIG1   0.1000
     28 H7        -18.1449    15.0657   -19.7911 H          1  LIG1   0.0900
     29 H8        -17.4256    16.4178   -20.7258 H          1  LIG1   0.1300
     30 H9        -16.4124    15.8167   -18.2926 H          1  LIG1   0.1300
     31 H10       -16.6643    17.5373   -18.7321 H          1  LIG1   0.1300
     32 H11       -17.5087    18.5570   -16.8285 H          1  LIG1   0.1400
     33 H12       -18.4971    17.6431   -15.6637 H          1  LIG1   0.1400
     34 H13       -17.2439    15.0135   -15.7468 H          1  LIG1   0.1600
     35 H14       -15.8662    13.0959   -14.8329 H          1  LIG1   0.1400
     36 H15       -13.7895    12.2631   -13.8500 H          1  LIG1   0.1400
     37 H16       -11.9201    13.7938   -13.4013 H          1  LIG1   0.1400
     38 H17       -12.1077    16.1833   -13.9318 H          1  LIG1   0.1400
     39 H18       -13.5013    17.9561   -14.8228 H          1  LIG1   0.4300
     40 H19       -19.3628    18.3702   -18.0479 H          1  LIG1   0.1400
     41 H20       -20.2858    16.8681   -17.7593 H          1  LIG1   0.1300
@<TRIPOS>BOND
     1    1    2 am
     2    1   24 1
     3    1   25 1
     4    2    3 2
     5    2    4 1
     6    4    5 1
     7    4   26 1
     8    4   27 1
     9    5    6 1
    10    5   23 1
    11    5    7 1
    12    7    8 1
    13    7   28 1
    14    7   29 1
    15    8    9 1
    16    8   30 1
    17    8   31 1
    18    9   10 1
    19    9   11 1
    20    9   23 1
    21   11   12 1
    22   11   32 1
    23   11   33 1
    24   12   21 1
    25   12   13 2
    26   13   14 1
    27   13   34 1
    28   14   19 ar
    29   14   15 ar
    30   15   16 ar
    31   15   35 1
    32   16   17 ar
    33   16   36 1
    34   17   18 ar
    35   17   37 1
    36   18   19 ar
    37   18   38 1
    38   19   20 1
    39   20   21 am
    40   20   39 1
    41   21   22 2
    42   23   40 1
    43   23   41 1
##########                 Name:     ZINC000453630376
##########          Protonation:                 none
##########               SMILES:   CC1=CC=C(C[C@@H](CO)[NH2+]CC2=CC=CC3=NC=CN32)C=C1C
##########            Long Name:   NO_LONG_NAME
##########          FlexRecCode: 1
##########               Number:                 6325
##########   Ligand Source File: /nfs/db/export/3D/DF/ADRO/DFADRO.xajd.db2.gz
##########                 Rank:                    1
##########               Setnum:                  230
##########             Matchnum:                    1
##########                Cloud:                    1
##########        Electrostatic:           -44.340332
##########                 Gist:             0.000000
##########        Van der Waals:           -29.098358
##########  Ligand Polar Desolv:            19.528284
########## Ligand Apolar Desolv:            -4.212796
##########      Internal Energy:             0.000000
##########      Receptor Energy:             0.000000
########## Receptor Desolvation:             0.000000
########## Receptor Hydrophobic:             0.000000
##########         Total Energy:           -58.123199
##########        Ligand Charge:             1.000000
##########            Arbitrary:    +999.9990
##########        Ligand Energy:             0.000000

@<TRIPOS>MOLECULE
 ZINC000453630376      none
   47    49     0     0     0



@<TRIPOS>ATOM
      1 C1        -16.5013    20.9113   -22.8924 C.3        1  LIG1  -0.1300
      2 C2        -16.7570    19.7506   -21.9657 C.ar       1  LIG1  -0.0700
      3 C3        -15.8000    18.7654   -21.8116 C.ar       1  LIG1  -0.1000
      4 C4        -16.0346    17.7007   -20.9614 C.ar       1  LIG1  -0.1400
      5 C5        -17.2261    17.6217   -20.2654 C.ar       1  LIG1  -0.1300
      6 C6        -17.4820    16.4608   -19.3392 C.3        1  LIG1  -0.0900
      7 C7        -16.9804    16.8077   -17.9360 C.3        1  LIG1   0.0400
      8 H1        -16.0356    17.3461   -18.0107 H          1  LIG1   0.1500
      9 C8        -18.0136    17.6865   -17.2278 C.3        1  LIG1   0.0500
     10 O1        -19.0660    16.8664   -16.7163 O.3        1  LIG1  -0.5800
     11 N1        -16.7803    15.5716   -17.1680 N.4        1  LIG1  -0.5100
     12 H2        -17.6687    15.2459   -16.8175 H          1  LIG1   0.4300
     13 H3        -16.3755    14.8664   -17.7653 H          1  LIG1   0.4300
     14 C9        -15.8764    15.8364   -16.0407 C.3        1  LIG1   0.0400
     15 C10       -15.6711    14.5683   -15.2529 C.2        1  LIG1  -0.0100
     16 C11       -16.2843    13.4315   -15.6442 C.2        1  LIG1  -0.0700
     17 C12       -16.1019    12.2422   -14.9192 C.2        1  LIG1  -0.1200
     18 C13       -15.3026    12.2398   -13.8186 C.2        1  LIG1  -0.0300
     19 C14       -14.6689    13.4349   -13.4231 C.2        1  LIG1   0.2200
     20 N2        -13.8550    13.7231   -12.4173 N.2        1  LIG1  -0.4700
     21 C15       -13.5248    15.0154   -12.4772 C.2        1  LIG1   0.0600
     22 C16       -14.1402    15.5689   -13.5450 C.2        1  LIG1  -0.1100
     23 N3        -14.8623    14.5787   -14.1535 N.pl3      1  LIG1  -0.3600
     24 C17       -18.1829    18.6079   -20.4185 C.ar       1  LIG1  -0.1000
     25 C18       -17.9467    19.6743   -21.2655 C.ar       1  LIG1  -0.0700
     26 C19       -18.9896    20.7493   -21.4324 C.3        1  LIG1  -0.1300
     27 H4        -15.5192    20.7996   -23.3520 H          1  LIG1   0.0800
     28 H5        -17.2657    20.9313   -23.6691 H          1  LIG1   0.0700
     29 H6        -16.5338    21.8422   -22.3264 H          1  LIG1   0.0800
     30 H7        -14.8690    18.8272   -22.3555 H          1  LIG1   0.1300
     31 H8        -15.2871    16.9305   -20.8417 H          1  LIG1   0.1200
     32 H9        -18.5518    16.2547   -19.3020 H          1  LIG1   0.1200
     33 H10       -16.9550    15.5801   -19.7061 H          1  LIG1   0.1100
     34 H11       -17.5352    18.2188   -16.4057 H          1  LIG1   0.0700
     35 H12       -18.4250    18.4059   -17.9359 H          1  LIG1   0.1000
     36 H13       -19.5367    16.3624   -17.3941 H          1  LIG1   0.4100
     37 H14       -14.9168    16.1883   -16.4194 H          1  LIG1   0.1600
     38 H15       -16.3139    16.5982   -15.3955 H          1  LIG1   0.1400
     39 H16       -16.9184    13.4363   -16.5184 H          1  LIG1   0.1600
     40 H17       -16.5944    11.3340   -15.2340 H          1  LIG1   0.1600
     41 H18       -15.1553    11.3314   -13.2534 H          1  LIG1   0.1700
     42 H19       -12.8747    15.5323   -11.7869 H          1  LIG1   0.1900
     43 H20       -14.0723    16.5994   -13.8611 H          1  LIG1   0.1900
     44 H21       -19.1137    18.5463   -19.8743 H          1  LIG1   0.1300
     45 H22       -19.8516    20.5196   -20.8058 H          1  LIG1   0.0800
     46 H23       -18.5709    21.7109   -21.1359 H          1  LIG1   0.0800
     47 H24       -19.3009    20.7947   -22.4760 H          1  LIG1   0.0700
@<TRIPOS>BOND
     1    1    2 1
     2    1   27 1
     3    1   28 1
     4    1   29 1
     5    2   25 ar
     6    2    3 ar
     7    3    4 ar
     8    3   30 1
     9    4    5 ar
    10    4   31 1
    11    5    6 1
    12    5   24 ar
    13    6    7 1
    14    6   32 1
    15    6   33 1
    16    7    8 1
    17    7    9 1
    18    7   11 1
    19    9   10 1
    20    9   34 1
    21    9   35 1
    22   10   36 1
    23   11   12 1
    24   11   13 1
    25   11   14 1
    26   14   15 1
    27   14   37 1
    28   14   38 1
    29   15   23 1
    30   15   16 2
    31   16   17 1
    32   16   39 1
    33   17   18 2
    34   17   40 1
    35   18   19 1
    36   18   41 1
    37   19   23 1
    38   19   20 2
    39   20   21 1
    40   21   22 2
    41   21   42 1
    42   22   23 1
    43   22   43 1
    44   24   25 ar
    45   24   44 1
    46   25   26 1
    47   26   45 1
    48   26   46 1
    49   26   47 1
##########                 Name:     ZINC000093509678
##########          Protonation:                 none
##########               SMILES:   CSCC[N@H+](C)CC1=CN(C2=CC=C(F)C=C2)N=C1
##########            Long Name:   NO_LONG_NAME
##########          FlexRecCode: 1
##########               Number:                 9688
##########   Ligand Source File: /nfs/db/export/3D/CF/ADRO/CFADRO.xaxo.db2.gz
##########                 Rank:                    1
##########               Setnum:                   58
##########             Matchnum:                    1
##########                Cloud:                    1
##########        Electrostatic:           -39.823578
##########                 Gist:             0.000000
##########        Van der Waals:           -28.795952
##########  Ligand Polar Desolv:            16.505812
########## Ligand Apolar Desolv:            -6.006505
##########      Internal Energy:             0.000000
##########      Receptor Energy:             0.000000
########## Receptor Desolvation:             0.000000
########## Receptor Hydrophobic:             0.000000
##########         Total Energy:           -58.120224
##########        Ligand Charge:             1.000000
##########            Arbitrary:    +999.9990
##########        Ligand Energy:             0.000000

@<TRIPOS>MOLECULE
 ZINC000093509678      none
   38    39     0     0     0



@<TRIPOS>ATOM
      1 C1        -22.5165    16.2832   -20.3693 C.3        1  LIG1  -0.1300
      2 S1        -21.2078    17.4979   -20.0494 S.3        1  LIG1  -0.2100
      3 C2        -20.2613    16.7332   -18.7040 C.3        1  LIG1  -0.1400
      4 C3        -18.8657    17.3573   -18.6436 C.3        1  LIG1   0.0100
      5 N1        -18.0992    16.7381   -17.5541 N.4        1  LIG1  -0.3800
      6 H1        -18.2873    15.7470   -17.5315 H          1  LIG1   0.4200
      7 C4        -18.4938    17.3407   -16.2737 C.3        1  LIG1  -0.0500
      8 C5        -16.6642    16.9592   -17.7776 C.3        1  LIG1   0.0900
      9 C6        -15.8780    16.3240   -16.6599 C.2        1  LIG1  -0.3100
     10 C7        -16.0788    15.0874   -16.1480 C.2        1  LIG1   0.1000
     11 N2        -15.1699    14.8964   -15.1655 N.pl3      1  LIG1  -0.3000
     12 C8        -15.0352    13.7432   -14.3786 C.ar       1  LIG1   0.1200
     13 C9        -14.0571    13.6831   -13.3953 C.ar       1  LIG1  -0.1000
     14 C10       -13.9263    12.5470   -12.6212 C.ar       1  LIG1  -0.1300
     15 C11       -14.7700    11.4678   -12.8254 C.ar       1  LIG1   0.1100
     16 F1        -14.6404    10.3571   -12.0675 F          1  LIG1  -0.1200
     17 C12       -15.7467    11.5263   -13.8054 C.ar       1  LIG1  -0.1300
     18 C13       -15.8839    12.6627   -14.5780 C.ar       1  LIG1  -0.0700
     19 N3        -14.3864    16.0539   -15.0726 N.2        1  LIG1  -0.2700
     20 C14       -14.8076    16.9062   -15.9724 C.2        1  LIG1   0.0800
     21 H2        -23.1578    16.6434   -21.1737 H          1  LIG1   0.1200
     22 H3        -22.0676    15.3335   -20.6600 H          1  LIG1   0.0900
     23 H4        -23.1106    16.1429   -19.4663 H          1  LIG1   0.0900
     24 H5        -20.7754    16.9003   -17.7575 H          1  LIG1   0.1000
     25 H6        -20.1727    15.6620   -18.8853 H          1  LIG1   0.1000
     26 H7        -18.3516    17.1902   -19.5901 H          1  LIG1   0.1400
     27 H8        -18.9542    18.4285   -18.4624 H          1  LIG1   0.1400
     28 H9        -17.9251    16.8813   -15.4653 H          1  LIG1   0.1300
     29 H10       -18.2906    18.4112   -16.2981 H          1  LIG1   0.1200
     30 H11       -19.5586    17.1767   -16.1078 H          1  LIG1   0.1200
     31 H12       -16.3715    16.5122   -18.7276 H          1  LIG1   0.1400
     32 H13       -16.4611    18.0299   -17.8019 H          1  LIG1   0.1400
     33 H14       -16.8305    14.3805   -16.4667 H          1  LIG1   0.1900
     34 H15       -13.3984    14.5240   -13.2361 H          1  LIG1   0.1400
     35 H16       -13.1655    12.4997   -11.8560 H          1  LIG1   0.1500
     36 H17       -16.4040    10.6839   -13.9631 H          1  LIG1   0.1500
     37 H18       -16.6459    12.7080   -15.3420 H          1  LIG1   0.1500
     38 H19       -14.4034    17.8921   -16.1485 H          1  LIG1   0.2000
@<TRIPOS>BOND
     1    1    2 1
     2    1   21 1
     3    1   22 1
     4    1   23 1
     5    2    3 1
     6    3    4 1
     7    3   24 1
     8    3   25 1
     9    4    5 1
    10    4   26 1
    11    4   27 1
    12    5    6 1
    13    5    7 1
    14    5    8 1
    15    7   28 1
    16    7   29 1
    17    7   30 1
    18    8    9 1
    19    8   31 1
    20    8   32 1
    21    9   20 1
    22    9   10 2
    23   10   11 1
    24   10   33 1
    25   11   12 1
    26   11   19 1
    27   12   18 ar
    28   12   13 ar
    29   13   14 ar
    30   13   34 1
    31   14   15 ar
    32   14   35 1
    33   15   16 1
    34   15   17 ar
    35   17   18 ar
    36   17   36 1
    37   18   37 1
    38   19   20 2
    39   20   38 1
##########                 Name:     ZINC000612559263
##########          Protonation:                 none
##########               SMILES:   CC1=NN=C(N2CC[C@@H]([N@H+](C)CC3=CC=CC=C3)C2)N1CC1CC1
##########            Long Name:   NO_LONG_NAME
##########          FlexRecCode: 1
##########               Number:                 9940
##########   Ligand Source File: /nfs/db/export/3D/EF/ADRO/EFADRO.xckc.db2.gz
##########                 Rank:                    1
##########               Setnum:                   16
##########             Matchnum:                    1
##########                Cloud:                    1
##########        Electrostatic:           -39.722263
##########                 Gist:             0.000000
##########        Van der Waals:           -30.002159
##########  Ligand Polar Desolv:            18.187323
########## Ligand Apolar Desolv:            -6.593907
##########      Internal Energy:             0.000000
##########      Receptor Energy:             0.000000
########## Receptor Desolvation:             0.000000
########## Receptor Hydrophobic:             0.000000
##########         Total Energy:           -58.131012
##########        Ligand Charge:             1.000000
##########            Arbitrary:    +999.9990
##########        Ligand Energy:             0.000000

@<TRIPOS>MOLECULE
 ZINC000612559263      none
   52    55     0     0     0



@<TRIPOS>ATOM
      1 C1        -14.7245    21.1457   -22.0694 C.3        1  LIG1  -0.0700
      2 C2        -15.0848    20.2666   -20.8995 C.2        1  LIG1   0.2000
      3 N1        -14.5529    20.3068   -19.7107 N.2        1  LIG1  -0.2800
      4 N2        -15.0940    19.4186   -18.9556 N.2        1  LIG1  -0.3200
      5 C3        -16.0076    18.7587   -19.6277 C.2        1  LIG1   0.3300
      6 N3        -16.7997    17.7280   -19.1472 N.pl3      1  LIG1  -0.4300
      7 C4        -18.0645    18.2491   -18.5864 C.3        1  LIG1   0.0400
      8 C5        -18.3976    17.2974   -17.4104 C.3        1  LIG1  -0.1400
      9 C6        -16.9869    17.0040   -16.8354 C.3        1  LIG1   0.0000
     10 H1        -16.6709    17.8023   -16.1639 H          1  LIG1   0.1500
     11 N4        -16.9669    15.7079   -16.1444 N.4        1  LIG1  -0.3700
     12 H2        -17.2125    14.9763   -16.7945 H          1  LIG1   0.4200
     13 C7        -17.9353    15.7269   -15.0399 C.3        1  LIG1  -0.0500
     14 C8        -15.6211    15.4579   -15.6114 C.3        1  LIG1   0.0400
     15 C9        -15.6006    14.1281   -14.9025 C.ar       1  LIG1  -0.1600
     16 C10       -14.7452    13.9268   -13.8354 C.ar       1  LIG1  -0.1000
     17 C11       -14.7264    12.7071   -13.1853 C.ar       1  LIG1  -0.1100
     18 C12       -15.5633    11.6888   -13.6018 C.ar       1  LIG1  -0.0800
     19 C13       -16.4194    11.8905   -14.6683 C.ar       1  LIG1  -0.1100
     20 C14       -16.4412    13.1115   -15.3157 C.ar       1  LIG1  -0.0900
     21 C15       -16.0982    16.9680   -18.0964 C.3        1  LIG1   0.0300
     22 N5        -16.0345    19.2830   -20.8871 N.pl3      1  LIG1  -0.4700
     23 C16       -16.8955    18.8708   -21.9985 C.3        1  LIG1   0.1400
     24 C17       -18.1872    19.6902   -21.9741 C.3        1  LIG1  -0.1900
     25 C18       -18.4057    20.6985   -23.1041 C.3        1  LIG1  -0.1700
     26 C19       -19.2245    19.4066   -23.0625 C.3        1  LIG1  -0.1600
     27 H3        -13.9322    21.8344   -21.7760 H          1  LIG1   0.0900
     28 H4        -14.3790    20.5258   -22.8968 H          1  LIG1   0.1000
     29 H5        -15.6016    21.7126   -22.3816 H          1  LIG1   0.0800
     30 H6        -17.9274    19.2676   -18.2230 H          1  LIG1   0.0700
     31 H7        -18.8545    18.2162   -19.3367 H          1  LIG1   0.1100
     32 H8        -19.0249    17.7951   -16.6710 H          1  LIG1   0.1100
     33 H9        -18.8706    16.3834   -17.7699 H          1  LIG1   0.1100
     34 H10       -17.9205    14.7651   -14.5272 H          1  LIG1   0.1300
     35 H11       -17.6700    16.5170   -14.3376 H          1  LIG1   0.1200
     36 H12       -18.9339    15.9124   -15.4353 H          1  LIG1   0.1200
     37 H13       -14.9026    15.4438   -16.4309 H          1  LIG1   0.1400
     38 H14       -15.3558    16.2480   -14.9090 H          1  LIG1   0.1400
     39 H15       -14.0912    14.7224   -13.5100 H          1  LIG1   0.1300
     40 H16       -14.0575    12.5496   -12.3520 H          1  LIG1   0.1400
     41 H17       -15.5481    10.7357   -13.0942 H          1  LIG1   0.1400
     42 H18       -17.0731    11.0948   -14.9939 H          1  LIG1   0.1400
     43 H19       -17.1101    13.2691   -16.1489 H          1  LIG1   0.1300
     44 H20       -15.9531    15.9369   -18.4186 H          1  LIG1   0.1100
     45 H21       -15.1346    17.4314   -17.8844 H          1  LIG1   0.1200
     46 H22       -16.3763    19.0390   -22.9421 H          1  LIG1   0.1000
     47 H23       -17.1350    17.8120   -21.8993 H          1  LIG1   0.1000
     48 H24       -18.5567    19.9560   -20.9836 H          1  LIG1   0.1100
     49 H25       -18.9190    21.6278   -22.8571 H          1  LIG1   0.1000
     50 H26       -17.6292    20.7778   -23.8648 H          1  LIG1   0.1000
     51 H27       -18.9867    18.6362   -23.7958 H          1  LIG1   0.1000
     52 H28       -20.2764    19.4861   -22.7882 H          1  LIG1   0.1000
@<TRIPOS>BOND
     1    1    2 1
     2    1   27 1
     3    1   28 1
     4    1   29 1
     5    2   22 1
     6    2    3 2
     7    3    4 1
     8    4    5 2
     9    5    6 1
    10    5   22 1
    11    6   21 1
    12    6    7 1
    13    7    8 1
    14    7   30 1
    15    7   31 1
    16    8    9 1
    17    8   32 1
    18    8   33 1
    19    9   10 1
    20    9   11 1
    21    9   21 1
    22   11   12 1
    23   11   13 1
    24   11   14 1
    25   13   34 1
    26   13   35 1
    27   13   36 1
    28   14   15 1
    29   14   37 1
    30   14   38 1
    31   15   20 ar
    32   15   16 ar
    33   16   17 ar
    34   16   39 1
    35   17   18 ar
    36   17   40 1
    37   18   19 ar
    38   18   41 1
    39   19   20 ar
    40   19   42 1
    41   20   43 1
    42   21   44 1
    43   21   45 1
    44   22   23 1
    45   23   24 1
    46   23   46 1
    47   23   47 1
    48   24   26 1
    49   24   25 1
    50   24   48 1
    51   25   26 1
    52   25   49 1
    53   25   50 1
    54   26   51 1
    55   26   52 1
##########                 Name:     ZINC000292119185
##########          Protonation:                 none
##########               SMILES:   C1=NN=C([C@H]([NH2+]CCN2C=NC3=CC=CC=C32)C2CCCCC2)N1
##########            Long Name:   NO_LONG_NAME
##########          FlexRecCode: 1
##########               Number:                13308
##########   Ligand Source File: /nfs/db/export/3D/DG/ADRO/DGADRO.xbje.db2.gz
##########                 Rank:                    1
##########               Setnum:                   50
##########             Matchnum:                    1
##########                Cloud:                    1
##########        Electrostatic:           -39.832653
##########                 Gist:             0.000000
##########        Van der Waals:           -32.007088
##########  Ligand Polar Desolv:            19.976669
########## Ligand Apolar Desolv:            -6.314603
##########      Internal Energy:             0.000000
##########      Receptor Energy:             0.000000
########## Receptor Desolvation:             0.000000
########## Receptor Hydrophobic:             0.000000
##########         Total Energy:           -58.177670
##########        Ligand Charge:             1.000000
##########            Arbitrary:    +999.9990
##########        Ligand Energy:             0.000000

@<TRIPOS>MOLECULE
 ZINC000292119185      none
   49    52     0     0     0



@<TRIPOS>ATOM
      1 C1        -16.1665    19.2739   -21.2839 C.2        1  LIG1   0.2100
      2 N1        -15.4759    18.2182   -20.9490 N.2        1  LIG1  -0.2700
      3 N2        -16.0819    17.5850   -20.0080 N.2        1  LIG1  -0.2400
      4 C2        -17.1866    18.2079   -19.6997 C.2        1  LIG1   0.1000
      5 C3        -18.1826    17.7924   -18.6480 C.3        1  LIG1   0.1400
      6 H1        -18.2727    18.5813   -17.9010 H          1  LIG1   0.1500
      7 N3        -17.7244    16.5556   -18.0011 N.4        1  LIG1  -0.5000
      8 H2        -18.5057    16.1016   -17.5521 H          1  LIG1   0.4400
      9 H3        -17.3308    15.9387   -18.6957 H          1  LIG1   0.4400
     10 C4        -16.7022    16.8780   -16.9966 C.3        1  LIG1  -0.0300
     11 C5        -16.2251    15.5899   -16.3229 C.3        1  LIG1   0.1000
     12 N4        -15.2055    15.9114   -15.3213 N.pl3      1  LIG1  -0.5000
     13 C6        -14.7413    17.1524   -15.0128 C.2        1  LIG1   0.2600
     14 N5        -13.8401    17.0731   -14.0777 N.2        1  LIG1  -0.4700
     15 C7        -13.6642    15.7745   -13.7220 C.ar       1  LIG1   0.0500
     16 C8        -12.8416    15.1330   -12.7929 C.ar       1  LIG1  -0.0500
     17 C9        -12.8926    13.7738   -12.6626 C.ar       1  LIG1  -0.1200
     18 C10       -13.7549    13.0197   -13.4453 C.ar       1  LIG1  -0.0900
     19 C11       -14.5759    13.6315   -14.3689 C.ar       1  LIG1  -0.1200
     20 C12       -14.5419    15.0117   -14.5112 C.ar       1  LIG1   0.0400
     21 C13       -19.5446    17.5516   -19.3022 C.3        1  LIG1  -0.1000
     22 C14       -19.5586    16.1687   -19.9566 C.3        1  LIG1  -0.1300
     23 C15       -20.9205    15.9279   -20.6109 C.3        1  LIG1  -0.1200
     24 C16       -22.0174    15.9997   -19.5467 C.3        1  LIG1  -0.1300
     25 C17       -22.0033    17.3825   -18.8921 C.3        1  LIG1  -0.1200
     26 C18       -20.6413    17.6234   -18.2380 C.3        1  LIG1  -0.1100
     27 N6        -17.2718    19.2975   -20.5006 N.pl3      1  LIG1  -0.5700
     28 H4        -15.9032    19.9971   -22.0416 H          1  LIG1   0.2400
     29 H5        -15.8581    17.3685   -17.4818 H          1  LIG1   0.1300
     30 H6        -17.1273    17.5445   -16.2463 H          1  LIG1   0.1400
     31 H7        -17.0690    15.0994   -15.8379 H          1  LIG1   0.1100
     32 H8        -15.7997    14.9234   -17.0733 H          1  LIG1   0.1200
     33 H9        -15.0725    18.0697   -15.4767 H          1  LIG1   0.2200
     34 H10       -12.1664    15.7103   -12.1787 H          1  LIG1   0.1400
     35 H11       -12.2548    13.2814   -11.9434 H          1  LIG1   0.1400
     36 H12       -13.7830    11.9461   -13.3306 H          1  LIG1   0.1400
     37 H13       -15.2452    13.0398   -14.9759 H          1  LIG1   0.1200
     38 H14       -19.7233    18.3142   -20.0603 H          1  LIG1   0.1100
     39 H15       -18.7771    16.1176   -20.7149 H          1  LIG1   0.0600
     40 H16       -19.3798    15.4062   -19.1986 H          1  LIG1   0.0800
     41 H17       -21.0994    16.6905   -21.3689 H          1  LIG1   0.0700
     42 H18       -20.9305    14.9427   -21.0771 H          1  LIG1   0.0800
     43 H19       -22.9876    15.8281   -20.0127 H          1  LIG1   0.0700
     44 H20       -21.8385    15.2371   -18.7886 H          1  LIG1   0.0700
     45 H21       -22.1822    18.1450   -19.6502 H          1  LIG1   0.0700
     46 H22       -22.7848    17.4337   -18.1339 H          1  LIG1   0.0700
     47 H23       -20.4626    16.8608   -17.4799 H          1  LIG1   0.0700
     48 H24       -20.6314    18.6085   -17.7717 H          1  LIG1   0.0700
     49 H25       -17.9802    19.9602   -20.5109 H          1  LIG1   0.4400
@<TRIPOS>BOND
     1    1   27 1
     2    1    2 2
     3    1   28 1
     4    2    3 1
     5    3    4 2
     6    4    5 1
     7    4   27 1
     8    5    6 1
     9    5    7 1
    10    5   21 1
    11    7    8 1
    12    7    9 1
    13    7   10 1
    14   10   11 1
    15   10   29 1
    16   10   30 1
    17   11   12 1
    18   11   31 1
    19   11   32 1
    20   12   20 1
    21   12   13 1
    22   13   14 2
    23   13   33 1
    24   14   15 1
    25   15   20 ar
    26   15   16 ar
    27   16   17 ar
    28   16   34 1
    29   17   18 ar
    30   17   35 1
    31   18   19 ar
    32   18   36 1
    33   19   20 ar
    34   19   37 1
    35   21   26 1
    36   21   22 1
    37   21   38 1
    38   22   23 1
    39   22   39 1
    40   22   40 1
    41   23   24 1
    42   23   41 1
    43   23   42 1
    44   24   25 1
    45   24   43 1
    46   24   44 1
    47   25   26 1
    48   25   45 1
    49   25   46 1
    50   26   47 1
    51   26   48 1
    52   27   49 1
##########                 Name:     ZINC000451813814
##########          Protonation:                 none
##########               SMILES:   CC1(C)COC[C@H]1[NH2+]CC(=O)NC1=CC=C(Cl)C(Cl)=C1
##########            Long Name:   NO_LONG_NAME
##########          FlexRecCode: 1
##########               Number:                 8284
##########   Ligand Source File: /nfs/db/export/3D/DF/ADRO/DFADRO.xbhw.db2.gz
##########                 Rank:                    1
##########               Setnum:                   24
##########             Matchnum:                    1
##########                Cloud:                    1
##########        Electrostatic:           -45.302963
##########                 Gist:             0.000000
##########        Van der Waals:           -28.810030
##########  Ligand Polar Desolv:            19.912453
########## Ligand Apolar Desolv:            -3.822714
##########      Internal Energy:             0.000000
##########      Receptor Energy:             0.000000
########## Receptor Desolvation:             0.000000
########## Receptor Hydrophobic:             0.000000
##########         Total Energy:           -58.023254
##########        Ligand Charge:             1.000000
##########            Arbitrary:    +999.9990
##########        Ligand Energy:             0.000000

@<TRIPOS>MOLECULE
 ZINC000451813814      none
   39    40     0     0     0



@<TRIPOS>ATOM
      1 C1        -20.0996    18.2190   -18.2674 C.3        1  LIG1  -0.1800
      2 C2        -20.1839    17.5401   -19.6359 C.3        1  LIG1  -0.1000
      3 C3        -21.5186    16.8079   -19.7884 C.3        1  LIG1  -0.1500
      4 C4        -19.9996    18.5765   -20.7666 C.3        1  LIG1   0.0500
      5 O1        -18.5930    18.5231   -21.0902 O.3        1  LIG1  -0.3500
      6 C5        -18.2467    17.1215   -21.0522 C.3        1  LIG1   0.0300
      7 C6        -19.0042    16.5608   -19.8281 C.3        1  LIG1  -0.0100
      8 H1        -19.3720    15.5556   -20.0342 H          1  LIG1   0.1600
      9 N1        -18.1363    16.5572   -18.6430 N.4        1  LIG1  -0.4900
     10 H2        -17.7695    17.4850   -18.4919 H          1  LIG1   0.4400
     11 H3        -18.6702    16.2712   -17.8360 H          1  LIG1   0.4400
     12 C7        -17.0252    15.6195   -18.8526 C.3        1  LIG1  -0.0300
     13 C8        -16.1348    15.6158   -17.6368 C.2        1  LIG1   0.5000
     14 O2        -15.2023    16.3882   -17.5657 O.2        1  LIG1  -0.5000
     15 N2        -16.3746    14.7543   -16.6285 N.am       1  LIG1  -0.6400
     16 C9        -15.5476    14.7509   -15.4992 C.ar       1  LIG1   0.1300
     17 C10       -14.9289    15.9236   -15.0869 C.ar       1  LIG1  -0.1100
     18 C11       -14.1131    15.9182   -13.9721 C.ar       1  LIG1  -0.0800
     19 C12       -13.9116    14.7457   -13.2663 C.ar       1  LIG1  -0.0300
     20 Cl1       -12.8856    14.7426   -11.8659 Cl         1  LIG1  -0.0300
     21 C13       -14.5276    13.5743   -13.6748 C.ar       1  LIG1  -0.0200
     22 Cl2       -14.2732    12.1047   -12.7863 Cl         1  LIG1  -0.0300
     23 C14       -15.3490    13.5759   -14.7863 C.ar       1  LIG1  -0.1000
     24 H4        -20.9385    18.9050   -18.1497 H          1  LIG1   0.0700
     25 H5        -20.1362    17.4623   -17.4837 H          1  LIG1   0.1000
     26 H6        -19.1639    18.7732   -18.1940 H          1  LIG1   0.0700
     27 H7        -21.5617    16.3307   -20.7674 H          1  LIG1   0.0800
     28 H8        -21.6081    16.0496   -19.0104 H          1  LIG1   0.0700
     29 H9        -22.3373    17.5215   -19.6956 H          1  LIG1   0.0700
     30 H10       -20.5992    18.3020   -21.6345 H          1  LIG1   0.0900
     31 H11       -20.2708    19.5724   -20.4164 H          1  LIG1   0.1200
     32 H12       -18.5776    16.6239   -21.9638 H          1  LIG1   0.1100
     33 H13       -17.1714    16.9998   -20.9213 H          1  LIG1   0.1100
     34 H14       -17.4215    14.6172   -19.0157 H          1  LIG1   0.1700
     35 H15       -16.4485    15.9285   -19.7244 H          1  LIG1   0.1700
     36 H16       -17.1202    14.1365   -16.6855 H          1  LIG1   0.4300
     37 H17       -15.0853    16.8394   -15.6375 H          1  LIG1   0.1500
     38 H18       -13.6316    16.8303   -13.6517 H          1  LIG1   0.1600
     39 H19       -15.8292    12.6625   -15.1049 H          1  LIG1   0.1600
@<TRIPOS>BOND
     1    1    2 1
     2    1   24 1
     3    1   25 1
     4    1   26 1
     5    2    7 1
     6    2    3 1
     7    2    4 1
     8    3   27 1
     9    3   28 1
    10    3   29 1
    11    4    5 1
    12    4   30 1
    13    4   31 1
    14    5    6 1
    15    6    7 1
    16    6   32 1
    17    6   33 1
    18    7    8 1
    19    7    9 1
    20    9   10 1
    21    9   11 1
    22    9   12 1
    23   12   13 1
    24   12   34 1
    25   12   35 1
    26   13   14 2
    27   13   15 am
    28   15   16 1
    29   15   36 1
    30   16   23 ar
    31   16   17 ar
    32   17   18 ar
    33   17   37 1
    34   18   19 ar
    35   18   38 1
    36   19   20 1
    37   19   21 ar
    38   21   22 1
    39   21   23 ar
    40   23   39 1
##########                 Name:     ZINC000331943359
##########          Protonation:                 none
##########               SMILES:   C[C@@H](C(=O)NC1=CC=CC=C1C(F)(F)F)[N@@H+](C)C1CC(O)C1
##########            Long Name:   NO_LONG_NAME
##########          FlexRecCode: 1
##########               Number:                13475
##########   Ligand Source File: /nfs/db/export/3D/DE/ADMO/DEADMO.xapo.db2.gz
##########                 Rank:                    1
##########               Setnum:                  216
##########             Matchnum:                    1
##########                Cloud:                    1
##########        Electrostatic:           -41.784298
##########                 Gist:             0.000000
##########        Van der Waals:           -25.650410
##########  Ligand Polar Desolv:            12.216625
########## Ligand Apolar Desolv:            -2.870982
##########      Internal Energy:             0.000000
##########      Receptor Energy:             0.000000
########## Receptor Desolvation:             0.000000
########## Receptor Hydrophobic:             0.000000
##########         Total Energy:           -58.089066
##########        Ligand Charge:             1.000000
##########            Arbitrary:    +999.9990
##########        Ligand Energy:             0.000000

@<TRIPOS>MOLECULE
 ZINC000331943359      none
   42    43     0     0     0



@<TRIPOS>ATOM
      1 C1        -16.2926    17.6716   -18.7618 C.3        1  LIG1  -0.1800
      2 C2        -16.8665    16.3942   -18.1454 C.3        1  LIG1   0.0100
      3 H1        -16.9594    15.6290   -18.9162 H          1  LIG1   0.1700
      4 C3        -15.9455    15.9032   -17.0584 C.2        1  LIG1   0.5100
      5 O1        -14.9300    16.5149   -16.8019 O.2        1  LIG1  -0.5000
      6 N1        -16.2502    14.7845   -16.3714 N.am       1  LIG1  -0.6500
      7 C4        -15.3950    14.3287   -15.3620 C.ar       1  LIG1   0.1800
      8 C5        -14.6351    15.2334   -14.6327 C.ar       1  LIG1  -0.1300
      9 C6        -13.7918    14.7801   -13.6370 C.ar       1  LIG1  -0.0600
     10 C7        -13.7038    13.4267   -13.3665 C.ar       1  LIG1  -0.1200
     11 C8        -14.4584    12.5233   -14.0917 C.ar       1  LIG1  -0.0500
     12 C9        -15.3084    12.9706   -15.0840 C.ar       1  LIG1  -0.2100
     13 C10       -16.1309    11.9850   -15.8735 C.3        1  LIG1   0.5100
     14 F1        -16.8964    12.6712   -16.8224 F          1  LIG1  -0.1600
     15 F2        -15.2811    11.0835   -16.5234 F          1  LIG1  -0.1800
     16 F3        -16.9785    11.2857   -15.0078 F          1  LIG1  -0.1800
     17 N2        -18.1901    16.6777   -17.5748 N.4        1  LIG1  -0.3600
     18 H2        -18.5685    15.8354   -17.1684 H          1  LIG1   0.4300
     19 C11       -18.0649    17.7091   -16.5363 C.3        1  LIG1  -0.0700
     20 C12       -19.0879    17.1562   -18.6345 C.3        1  LIG1  -0.0100
     21 C13       -19.3356    16.1222   -19.7456 C.3        1  LIG1  -0.1400
     22 C14       -20.8011    16.5880   -19.7440 C.3        1  LIG1   0.0900
     23 O2        -21.7410    15.5211   -19.8874 O.3        1  LIG1  -0.5500
     24 C15       -20.5795    17.0218   -18.2854 C.3        1  LIG1  -0.1800
     25 H3        -16.1996    18.4368   -17.9912 H          1  LIG1   0.1100
     26 H4        -15.3104    17.4611   -19.1851 H          1  LIG1   0.1000
     27 H5        -16.9587    18.0267   -19.5480 H          1  LIG1   0.1000
     28 H6        -17.0624    14.2953   -16.5764 H          1  LIG1   0.4200
     29 H7        -14.7033    16.2904   -14.8437 H          1  LIG1   0.1600
     30 H8        -13.2005    15.4834   -13.0693 H          1  LIG1   0.1400
     31 H9        -13.0429    13.0752   -12.5880 H          1  LIG1   0.1500
     32 H10       -14.3865    11.4670   -13.8787 H          1  LIG1   0.1500
     33 H11       -19.0471    17.9194   -16.1130 H          1  LIG1   0.1200
     34 H12       -17.3987    17.3540   -15.7500 H          1  LIG1   0.1300
     35 H13       -17.6561    18.6191   -16.9755 H          1  LIG1   0.1400
     36 H14       -18.8141    18.1430   -19.0078 H          1  LIG1   0.1700
     37 H15       -18.8081    16.3435   -20.6735 H          1  LIG1   0.1100
     38 H16       -19.2049    15.0905   -19.4189 H          1  LIG1   0.1100
     39 H17       -20.9963    17.4180   -20.4230 H          1  LIG1   0.1000
     40 H18       -21.6919    14.8569   -19.1864 H          1  LIG1   0.4000
     41 H19       -20.7890    16.2361   -17.5596 H          1  LIG1   0.1100
     42 H20       -21.0564    17.9694   -18.0345 H          1  LIG1   0.1100
@<TRIPOS>BOND
     1    1    2 1
     2    1   25 1
     3    1   26 1
     4    1   27 1
     5    2    3 1
     6    2    4 1
     7    2   17 1
     8    4    5 2
     9    4    6 am
    10    6    7 1
    11    6   28 1
    12    7   12 ar
    13    7    8 ar
    14    8    9 ar
    15    8   29 1
    16    9   10 ar
    17    9   30 1
    18   10   11 ar
    19   10   31 1
    20   11   12 ar
    21   11   32 1
    22   12   13 1
    23   13   14 1
    24   13   15 1
    25   13   16 1
    26   17   18 1
    27   17   19 1
    28   17   20 1
    29   19   33 1
    30   19   34 1
    31   19   35 1
    32   20   24 1
    33   20   21 1
    34   20   36 1
    35   21   22 1
    36   21   37 1
    37   21   38 1
    38   22   23 1
    39   22   24 1
    40   22   39 1
    41   23   40 1
    42   24   41 1
    43   24   42 1
##########                 Name:     ZINC000354225587
##########          Protonation:                 none
##########               SMILES:   C[NH+](C)CCC1=CC=CC=C1NC(=O)C1=NOC(C2=CC=NC=C2)=C1
##########            Long Name:   NO_LONG_NAME
##########          FlexRecCode: 1
##########               Number:                14508
##########   Ligand Source File: /nfs/db/export/3D/EG/ADRO/EGADRO.xaoa.db2.gz
##########                 Rank:                    1
##########               Setnum:                  106
##########             Matchnum:                    1
##########                Cloud:                    1
##########        Electrostatic:           -34.923199
##########                 Gist:             0.000000
##########        Van der Waals:           -33.912846
##########  Ligand Polar Desolv:            15.419306
########## Ligand Apolar Desolv:            -4.603693
##########      Internal Energy:             0.000000
##########      Receptor Energy:             0.000000
########## Receptor Desolvation:             0.000000
########## Receptor Hydrophobic:             0.000000
##########         Total Energy:           -58.020432
##########        Ligand Charge:             1.000000
##########            Arbitrary:    +999.9990
##########        Ligand Energy:             0.000000

@<TRIPOS>MOLECULE
 ZINC000354225587      none
   46    48     0     0     0



@<TRIPOS>ATOM
      1 C1        -16.9663    17.1346   -18.6167 C.3        1  LIG1  -0.0500
      2 N1        -17.9553    16.5410   -17.7070 N.4        1  LIG1  -0.3900
      3 H1        -17.9518    15.5378   -17.8149 H          1  LIG1   0.4300
      4 C2        -17.6141    16.8857   -16.3204 C.3        1  LIG1  -0.0500
      5 C3        -19.2904    17.0634   -18.0271 C.3        1  LIG1  -0.0100
      6 C4        -19.6459    16.7045   -19.4713 C.3        1  LIG1  -0.1000
      7 C5        -21.0156    17.2403   -19.7995 C.ar       1  LIG1  -0.1300
      8 C6        -22.1346    16.4646   -19.5697 C.ar       1  LIG1  -0.0900
      9 C7        -23.3921    16.9558   -19.8702 C.ar       1  LIG1  -0.1200
     10 C8        -23.5332    18.2244   -20.4015 C.ar       1  LIG1  -0.0800
     11 C9        -22.4180    19.0056   -20.6339 C.ar       1  LIG1  -0.1100
     12 C10       -21.1543    18.5174   -20.3283 C.ar       1  LIG1   0.1500
     13 N2        -20.0232    19.3057   -20.5618 N.am       1  LIG1  -0.6600
     14 C11       -19.7474    19.7360   -21.8089 C.2        1  LIG1   0.6000
     15 O1        -20.4816    19.4387   -22.7304 O.2        1  LIG1  -0.4800
     16 C12       -18.5477    20.5718   -22.0567 C.2        1  LIG1  -0.0200
     17 N3        -17.9824    21.4040   -21.2166 N.2        1  LIG1  -0.3400
     18 O2        -17.0172    21.9451   -21.7030 O.3        1  LIG1   0.1400
     19 C13       -16.8012    21.5375   -22.9661 C.2        1  LIG1   0.0300
     20 C14       -15.7167    21.9827   -23.8677 C.ar       1  LIG1   0.0100
     21 C15       -16.0054    22.6093   -25.0854 C.ar       1  LIG1  -0.1400
     22 C16       -14.9627    23.0083   -25.8959 C.ar       1  LIG1   0.1100
     23 N4        -13.7093    22.8064   -25.5360 N.ar       1  LIG1  -0.4700
     24 C17       -13.3935    22.2197   -24.3979 C.ar       1  LIG1   0.1100
     25 C18       -14.3730    21.7944   -23.5243 C.ar       1  LIG1  -0.1500
     26 C19       -17.7789    20.6256   -23.2491 C.2        1  LIG1  -0.1600
     27 H2        -16.9698    18.2183   -18.5003 H          1  LIG1   0.1300
     28 H3        -15.9755    16.7470   -18.3792 H          1  LIG1   0.1200
     29 H4        -17.2194    16.8789   -19.6456 H          1  LIG1   0.1200
     30 H5        -18.3479    16.4453   -15.6453 H          1  LIG1   0.1200
     31 H6        -16.6233    16.4983   -16.0830 H          1  LIG1   0.1200
     32 H7        -17.6177    17.9695   -16.2041 H          1  LIG1   0.1300
     33 H8        -20.0244    16.6230   -17.3521 H          1  LIG1   0.1400
     34 H9        -19.2942    18.1471   -17.9105 H          1  LIG1   0.1200
     35 H10       -18.9120    17.1449   -20.1462 H          1  LIG1   0.0900
     36 H11       -19.6422    15.6207   -19.5877 H          1  LIG1   0.1000
     37 H12       -22.0278    15.4730   -19.1551 H          1  LIG1   0.1300
     38 H13       -24.2657    16.3469   -19.6898 H          1  LIG1   0.1300
     39 H14       -24.5166    18.6049   -20.6354 H          1  LIG1   0.1400
     40 H15       -22.5289    19.9964   -21.0492 H          1  LIG1   0.1500
     41 H16       -19.4371    19.5429   -19.8263 H          1  LIG1   0.4100
     42 H17       -17.0289    22.7773   -25.3863 H          1  LIG1   0.1500
     43 H18       -15.1753    23.4926   -26.8376 H          1  LIG1   0.1700
     44 H19       -12.3539    22.0742   -24.1442 H          1  LIG1   0.1700
     45 H20       -14.1070    21.3149   -22.5938 H          1  LIG1   0.1500
     46 H21       -17.9346    20.0791   -24.1675 H          1  LIG1   0.1900
@<TRIPOS>BOND
     1    1    2 1
     2    1   27 1
     3    1   28 1
     4    1   29 1
     5    2    3 1
     6    2    4 1
     7    2    5 1
     8    4   30 1
     9    4   31 1
    10    4   32 1
    11    5    6 1
    12    5   33 1
    13    5   34 1
    14    6    7 1
    15    6   35 1
    16    6   36 1
    17    7   12 ar
    18    7    8 ar
    19    8    9 ar
    20    8   37 1
    21    9   10 ar
    22    9   38 1
    23   10   11 ar
    24   10   39 1
    25   11   12 ar
    26   11   40 1
    27   12   13 1
    28   13   14 am
    29   13   41 1
    30   14   15 2
    31   14   16 1
    32   16   26 1
    33   16   17 2
    34   17   18 1
    35   18   19 1
    36   19   20 1
    37   19   26 2
    38   20   25 ar
    39   20   21 ar
    40   21   22 ar
    41   21   42 1
    42   22   23 ar
    43   22   43 1
    44   23   24 ar
    45   24   25 ar
    46   24   44 1
    47   25   45 1
    48   26   46 1
##########                 Name:     ZINC000543808488
##########          Protonation:                 none
##########               SMILES:   CC1=CC=C(NC(=O)C[NH+]2CCC(CC#N)CC2)C=C1F
##########            Long Name:   NO_LONG_NAME
##########          FlexRecCode: 1
##########               Number:                 2770
##########   Ligand Source File: /nfs/db/export/3D/CF/EDMO/CFEDMO.xdn.db2.gz
##########                 Rank:                    1
##########               Setnum:                  114
##########             Matchnum:                    1
##########                Cloud:                    1
##########        Electrostatic:           -41.466057
##########                 Gist:             0.000000
##########        Van der Waals:           -31.158022
##########  Ligand Polar Desolv:            19.901133
########## Ligand Apolar Desolv:            -5.485331
##########      Internal Energy:             0.000000
##########      Receptor Energy:             0.000000
########## Receptor Desolvation:             0.000000
########## Receptor Hydrophobic:             0.000000
##########         Total Energy:           -58.208275
##########        Ligand Charge:             1.000000
##########            Arbitrary:    +999.9990
##########        Ligand Energy:             0.000000

@<TRIPOS>MOLECULE
 ZINC000543808488      none
   42    43     0     0     0



@<TRIPOS>ATOM
      1 C1        -14.7939    11.4546   -12.3320 C.3        1  LIG1  -0.1200
      2 C2        -15.1927    12.3722   -13.4589 C.ar       1  LIG1  -0.1100
      3 C3        -16.0878    11.9378   -14.4184 C.ar       1  LIG1  -0.0700
      4 C4        -16.4553    12.7760   -15.4531 C.ar       1  LIG1  -0.1200
      5 C5        -15.9255    14.0574   -15.5296 C.ar       1  LIG1   0.1400
      6 N1        -16.2969    14.9081   -16.5765 N.am       1  LIG1  -0.6400
      7 C6        -16.8962    16.0852   -16.3082 C.2        1  LIG1   0.5000
      8 O1        -17.1134    16.4071   -15.1592 O.2        1  LIG1  -0.5100
      9 C7        -17.2963    17.0013   -17.4359 C.3        1  LIG1  -0.0300
     10 N2        -18.6649    16.6822   -17.8637 N.4        1  LIG1  -0.3700
     11 H1        -18.7918    15.6811   -17.8627 H          1  LIG1   0.4300
     12 C8        -18.8855    17.2005   -19.2193 C.3        1  LIG1  -0.0100
     13 C9        -20.2817    16.8007   -19.7012 C.3        1  LIG1  -0.1400
     14 C10       -21.3308    17.3868   -18.7520 C.3        1  LIG1  -0.1000
     15 C11       -22.7247    16.9255   -19.1820 C.3        1  LIG1  -0.0200
     16 C12       -23.1896    17.7520   -20.3078 C.1        1  LIG1   0.1900
     17 N3        -23.5484    18.3900   -21.1765 N.1        1  LIG1  -0.4100
     18 C13       -21.0463    16.8985   -17.3286 C.3        1  LIG1  -0.1400
     19 C14       -19.6218    17.2962   -16.9355 C.3        1  LIG1  -0.0200
     20 C15       -15.0267    14.4931   -14.5650 C.ar       1  LIG1  -0.1700
     21 C16       -14.6661    13.6516   -13.5282 C.ar       1  LIG1   0.1200
     22 F1        -13.7918    14.0737   -12.5888 F          1  LIG1  -0.1300
     23 H2        -15.3052    10.4985   -12.4436 H          1  LIG1   0.0800
     24 H3        -13.7159    11.2952   -12.3574 H          1  LIG1   0.0800
     25 H4        -15.0719    11.9065   -11.3798 H          1  LIG1   0.0800
     26 H5        -16.5002    10.9413   -14.3594 H          1  LIG1   0.1400
     27 H6        -17.1543    12.4350   -16.2025 H          1  LIG1   0.1400
     28 H7        -16.1233    14.6506   -17.4955 H          1  LIG1   0.4200
     29 H8        -17.2538    18.0359   -17.0960 H          1  LIG1   0.1600
     30 H9        -16.6127    16.8657   -18.2740 H          1  LIG1   0.1700
     31 H10       -18.8020    18.2873   -19.2102 H          1  LIG1   0.1300
     32 H11       -18.1362    16.7850   -19.8930 H          1  LIG1   0.1400
     33 H12       -20.4443    17.1880   -20.7070 H          1  LIG1   0.1200
     34 H13       -20.3663    15.7141   -19.7109 H          1  LIG1   0.1000
     35 H14       -21.2818    18.4754   -18.7817 H          1  LIG1   0.1000
     36 H15       -22.6823    15.8810   -19.4913 H          1  LIG1   0.1200
     37 H16       -23.4158    17.0288   -18.3456 H          1  LIG1   0.1200
     38 H17       -21.7554    17.3558   -16.6385 H          1  LIG1   0.1100
     39 H18       -21.1466    15.8140   -17.2889 H          1  LIG1   0.1000
     40 H19       -19.4151    16.9507   -15.9225 H          1  LIG1   0.1500
     41 H20       -19.5237    18.3811   -16.9755 H          1  LIG1   0.1300
     42 H21       -14.6128    15.4890   -14.6221 H          1  LIG1   0.1400
@<TRIPOS>BOND
     1    1    2 1
     2    1   23 1
     3    1   24 1
     4    1   25 1
     5    2   21 ar
     6    2    3 ar
     7    3    4 ar
     8    3   26 1
     9    4    5 ar
    10    4   27 1
    11    5    6 1
    12    5   20 ar
    13    6    7 am
    14    6   28 1
    15    7    8 2
    16    7    9 1
    17    9   10 1
    18    9   29 1
    19    9   30 1
    20   10   11 1
    21   10   19 1
    22   10   12 1
    23   12   13 1
    24   12   31 1
    25   12   32 1
    26   13   14 1
    27   13   33 1
    28   13   34 1
    29   14   15 1
    30   14   18 1
    31   14   35 1
    32   15   16 1
    33   15   36 1
    34   15   37 1
    35   16   17 3
    36   18   19 1
    37   18   38 1
    38   18   39 1
    39   19   40 1
    40   19   41 1
    41   20   21 ar
    42   20   42 1
    43   21   22 1
##########                 Name:     ZINC000119410297
##########          Protonation:                 none
##########               SMILES:   N#CC1=CC=C(OC[C@H](O)C[N@@H+](C[C@@H]2CCCO2)[C@@H]2CCSC2)C=C1
##########            Long Name:   NO_LONG_NAME
##########          FlexRecCode: 1
##########               Number:                 5175
##########   Ligand Source File: /nfs/db/export/3D/FE/EDMO/FEEDMO.xaa.db2.gz
##########                 Rank:                    1
##########               Setnum:                   28
##########             Matchnum:                    1
##########                Cloud:                    1
##########        Electrostatic:           -35.322876
##########                 Gist:             0.000000
##########        Van der Waals:           -34.896481
##########  Ligand Polar Desolv:            16.420052
########## Ligand Apolar Desolv:            -4.194917
##########      Internal Energy:             0.000000
##########      Receptor Energy:             0.000000
########## Receptor Desolvation:             0.000000
########## Receptor Hydrophobic:             0.000000
##########         Total Energy:           -57.994225
##########        Ligand Charge:             1.000000
##########            Arbitrary:    +999.9990
##########        Ligand Energy:             0.000000

@<TRIPOS>MOLECULE
 ZINC000119410297      none
   52    54     0     0     0



@<TRIPOS>ATOM
      1 N1        -15.0795    10.1727   -12.2670 N.1        1  LIG1  -0.4000
      2 C1        -15.1279    11.1148   -12.9000 C.1        1  LIG1   0.2400
      3 C2        -15.1888    12.3022   -13.6981 C.ar       1  LIG1  -0.0500
      4 C3        -16.0130    12.3472   -14.8258 C.ar       1  LIG1  -0.0300
      5 C4        -16.0690    13.4915   -15.5902 C.ar       1  LIG1  -0.1400
      6 C5        -15.3071    14.6002   -15.2419 C.ar       1  LIG1   0.1500
      7 O1        -15.3649    15.7260   -15.9983 O.3        1  LIG1  -0.3000
      8 C6        -16.5960    15.9917   -16.6733 C.3        1  LIG1   0.0300
      9 C7        -16.7798    17.5032   -16.8229 C.3        1  LIG1   0.0800
     10 H1        -15.9523    17.9145   -17.4010 H          1  LIG1   0.1300
     11 O2        -16.8052    18.1103   -15.5295 O.3        1  LIG1  -0.5300
     12 C8        -18.0980    17.7878   -17.5457 C.3        1  LIG1  -0.0400
     13 N2        -18.0719    17.1638   -18.8753 N.4        1  LIG1  -0.3800
     14 H2        -17.9508    16.1670   -18.7767 H          1  LIG1   0.4300
     15 C9        -19.3376    17.4369   -19.5691 C.3        1  LIG1  -0.0300
     16 C10       -20.4139    16.4734   -19.0650 C.3        1  LIG1   0.0500
     17 H3        -19.9862    15.4799   -18.9289 H          1  LIG1   0.1100
     18 C11       -21.5758    16.4089   -20.0795 C.3        1  LIG1  -0.1500
     19 C12       -22.8200    16.3477   -19.1520 C.3        1  LIG1  -0.1600
     20 C13       -22.3492    17.2317   -17.9698 C.3        1  LIG1   0.0500
     21 O3        -20.9470    16.9472   -17.8230 O.3        1  LIG1  -0.3800
     22 C14       -16.9568    17.7181   -19.6545 C.3        1  LIG1   0.0300
     23 H4        -16.0237    17.5100   -19.1311 H          1  LIG1   0.1500
     24 C15       -17.1351    19.2330   -19.7654 C.3        1  LIG1  -0.1600
     25 C16       -16.4900    19.7210   -21.0894 C.3        1  LIG1  -0.0700
     26 S1        -17.0245    18.3944   -22.2469 S.3        1  LIG1  -0.2500
     27 C17       -16.9202    17.0309   -21.0289 C.3        1  LIG1  -0.0900
     28 C18       -14.4866    14.5600   -14.1211 C.ar       1  LIG1  -0.2100
     29 C19       -14.4286    13.4216   -13.3480 C.ar       1  LIG1  -0.0300
     30 H5        -16.6049    11.4857   -15.0977 H          1  LIG1   0.1500
     31 H6        -16.7057    13.5271   -16.4619 H          1  LIG1   0.1500
     32 H7        -16.5767    15.5286   -17.6599 H          1  LIG1   0.0800
     33 H8        -17.4235    15.5806   -16.0950 H          1  LIG1   0.0800
     34 H9        -17.5180    17.7912   -14.9592 H          1  LIG1   0.3900
     35 H10       -18.9255    17.3765   -16.9675 H          1  LIG1   0.1500
     36 H11       -18.2288    18.8647   -17.6521 H          1  LIG1   0.1400
     37 H12       -19.6468    18.4631   -19.3706 H          1  LIG1   0.1400
     38 H13       -19.2008    17.2998   -20.6419 H          1  LIG1   0.1500
     39 H14       -21.5986    17.3042   -20.7007 H          1  LIG1   0.0900
     40 H15       -21.5053    15.5111   -20.6936 H          1  LIG1   0.1000
     41 H16       -23.6950    16.7774   -19.6398 H          1  LIG1   0.1000
     42 H17       -23.0165    15.3266   -18.8252 H          1  LIG1   0.0900
     43 H18       -22.4998    18.2860   -18.2021 H          1  LIG1   0.0700
     44 H19       -22.8861    16.9637   -17.0597 H          1  LIG1   0.1000
     45 H20       -18.1974    19.4772   -19.7645 H          1  LIG1   0.1000
     46 H21       -16.6497    19.7212   -18.9203 H          1  LIG1   0.1100
     47 H22       -16.8915    20.6891   -21.3887 H          1  LIG1   0.1300
     48 H23       -15.4037    19.7567   -21.0073 H          1  LIG1   0.1100
     49 H24       -15.9854    16.4840   -21.1515 H          1  LIG1   0.1500
     50 H25       -17.7709    16.3584   -21.1395 H          1  LIG1   0.1200
     51 H26       -13.8964    15.4240   -13.8536 H          1  LIG1   0.1300
     52 H27       -13.7910    13.3912   -12.4769 H          1  LIG1   0.1400
@<TRIPOS>BOND
     1    1    2 3
     2    2    3 1
     3    3   29 ar
     4    3    4 ar
     5    4    5 ar
     6    4   30 1
     7    5    6 ar
     8    5   31 1
     9    6    7 1
    10    6   28 ar
    11    7    8 1
    12    8    9 1
    13    8   32 1
    14    8   33 1
    15    9   10 1
    16    9   11 1
    17    9   12 1
    18   11   34 1
    19   12   13 1
    20   12   35 1
    21   12   36 1
    22   13   14 1
    23   13   15 1
    24   13   22 1
    25   15   16 1
    26   15   37 1
    27   15   38 1
    28   16   17 1
    29   16   21 1
    30   16   18 1
    31   18   19 1
    32   18   39 1
    33   18   40 1
    34   19   20 1
    35   19   41 1
    36   19   42 1
    37   20   21 1
    38   20   43 1
    39   20   44 1
    40   22   23 1
    41   22   27 1
    42   22   24 1
    43   24   25 1
    44   24   45 1
    45   24   46 1
    46   25   26 1
    47   25   47 1
    48   25   48 1
    49   26   27 1
    50   27   49 1
    51   27   50 1
    52   28   29 ar
    53   28   51 1
    54   29   52 1
##########                 Name:     ZINC000516175875
##########          Protonation:                 none
##########               SMILES:   C[C@@](O)(C[NH2+]CCCC(=O)N1CCC2=CC=CC=C21)C(F)(F)F
##########            Long Name:   NO_LONG_NAME
##########          FlexRecCode: 1
##########               Number:                 1311
##########   Ligand Source File: /nfs/db/export/3D/EE/ADRO/EEADRO.xabr.db2.gz
##########                 Rank:                    1
##########               Setnum:                  229
##########             Matchnum:                    1
##########                Cloud:                    1
##########        Electrostatic:           -41.855221
##########                 Gist:             0.000000
##########        Van der Waals:           -28.783922
##########  Ligand Polar Desolv:            16.396711
########## Ligand Apolar Desolv:            -3.928958
##########      Internal Energy:             0.000000
##########      Receptor Energy:             0.000000
########## Receptor Desolvation:             0.000000
########## Receptor Hydrophobic:             0.000000
##########         Total Energy:           -58.171391
##########        Ligand Charge:             1.000000
##########            Arbitrary:    +999.9990
##########        Ligand Energy:             0.000000

@<TRIPOS>MOLECULE
 ZINC000516175875      none
   45    46     0     0     0



@<TRIPOS>ATOM
      1 C1        -21.2894    15.9791   -18.2136 C.3        1  LIG1  -0.1700
      2 C2        -21.0941    17.2847   -18.9871 C.3        1  LIG1   0.0700
      3 O1        -21.2218    18.3920   -18.0928 O.3        1  LIG1  -0.5200
      4 C3        -19.7015    17.2987   -19.6206 C.3        1  LIG1  -0.0400
      5 N1        -18.6831    17.1969   -18.5669 N.4        1  LIG1  -0.5000
      6 H1        -18.7732    17.9787   -17.9354 H          1  LIG1   0.4400
      7 H2        -18.8121    16.3359   -18.0567 H          1  LIG1   0.4300
      8 C4        -17.3461    17.2102   -19.1751 C.3        1  LIG1  -0.0100
      9 C5        -16.2854    17.1041   -18.0776 C.3        1  LIG1  -0.1400
     10 C6        -16.4805    15.7988   -17.3040 C.3        1  LIG1  -0.1400
     11 C7        -15.4357    15.6944   -16.2230 C.2        1  LIG1   0.5200
     12 O2        -14.6155    16.5772   -16.0850 O.2        1  LIG1  -0.5200
     13 N2        -15.4125    14.6201   -15.4095 N.am       1  LIG1  -0.5500
     14 C8        -16.3475    13.4938   -15.4784 C.3        1  LIG1   0.1100
     15 C9        -15.9106    12.5379   -14.3564 C.3        1  LIG1  -0.0900
     16 C10       -14.7219    13.2194   -13.7168 C.ar       1  LIG1  -0.1200
     17 C11       -13.9171    12.8356   -12.6617 C.ar       1  LIG1  -0.0700
     18 C12       -12.8731    13.6453   -12.2540 C.ar       1  LIG1  -0.1300
     19 C13       -12.6356    14.8414   -12.9057 C.ar       1  LIG1  -0.0900
     20 C14       -13.4360    15.2283   -13.9596 C.ar       1  LIG1  -0.1600
     21 C15       -14.4890    14.4140   -14.3800 C.ar       1  LIG1   0.1300
     22 C16       -22.1548    17.3908   -20.0848 C.3        1  LIG1   0.4400
     23 F1        -23.4282    17.3779   -19.5054 F          1  LIG1  -0.1500
     24 F2        -21.9763    18.5845   -20.7920 F          1  LIG1  -0.1700
     25 F3        -22.0299    16.3068   -20.9603 F          1  LIG1  -0.1700
     26 H3        -21.1921    15.1347   -18.8958 H          1  LIG1   0.1100
     27 H4        -20.5338    15.9036   -17.4317 H          1  LIG1   0.1100
     28 H5        -22.2815    15.9691   -17.7623 H          1  LIG1   0.0900
     29 H6        -20.5793    18.3896   -17.3699 H          1  LIG1   0.4000
     30 H7        -19.6041    16.4542   -20.3028 H          1  LIG1   0.1600
     31 H8        -19.5624    18.2289   -20.1716 H          1  LIG1   0.1500
     32 H9        -17.2488    16.3654   -19.8572 H          1  LIG1   0.1400
     33 H10       -17.2068    18.1401   -19.7262 H          1  LIG1   0.1400
     34 H11       -15.2932    17.1140   -18.5291 H          1  LIG1   0.1000
     35 H12       -16.3825    17.9489   -17.3956 H          1  LIG1   0.1000
     36 H13       -17.4726    15.7889   -16.8524 H          1  LIG1   0.1100
     37 H14       -16.3834    14.9541   -17.9859 H          1  LIG1   0.1100
     38 H15       -17.3672    13.8379   -15.3064 H          1  LIG1   0.0900
     39 H16       -16.2728    12.9992   -16.4468 H          1  LIG1   0.0900
     40 H17       -16.7133    12.4127   -13.6297 H          1  LIG1   0.1000
     41 H18       -15.6181    11.5733   -14.7711 H          1  LIG1   0.1000
     42 H19       -14.1040    11.9009   -12.1538 H          1  LIG1   0.1300
     43 H20       -12.2451    13.3445   -11.4286 H          1  LIG1   0.1300
     44 H21       -11.8207    15.4748   -12.5879 H          1  LIG1   0.1300
     45 H22       -13.2452    16.1639   -14.4644 H          1  LIG1   0.1300
@<TRIPOS>BOND
     1    1    2 1
     2    1   26 1
     3    1   27 1
     4    1   28 1
     5    2    3 1
     6    2    4 1
     7    2   22 1
     8    3   29 1
     9    4    5 1
    10    4   30 1
    11    4   31 1
    12    5    6 1
    13    5    7 1
    14    5    8 1
    15    8    9 1
    16    8   32 1
    17    8   33 1
    18    9   10 1
    19    9   34 1
    20    9   35 1
    21   10   11 1
    22   10   36 1
    23   10   37 1
    24   11   12 2
    25   11   13 am
    26   13   21 1
    27   13   14 1
    28   14   15 1
    29   14   38 1
    30   14   39 1
    31   15   16 1
    32   15   40 1
    33   15   41 1
    34   16   21 ar
    35   16   17 ar
    36   17   18 ar
    37   17   42 1
    38   18   19 ar
    39   18   43 1
    40   19   20 ar
    41   19   44 1
    42   20   21 ar
    43   20   45 1
    44   22   23 1
    45   22   24 1
    46   22   25 1
##########                 Name:     ZINC000331841617
##########          Protonation:                 none
##########               SMILES:   CC1=CC=CC=C1NC(=O)[C@H](C)[N@@H+](C)C1CC(O)C1
##########            Long Name:   NO_LONG_NAME
##########          FlexRecCode: 1
##########               Number:                 2649
##########   Ligand Source File: /nfs/db/export/3D/CD/ADMO/CDADMO.xaln.db2.gz
##########                 Rank:                    1
##########               Setnum:                   24
##########             Matchnum:                    1
##########                Cloud:                    1
##########        Electrostatic:           -42.842827
##########                 Gist:             0.000000
##########        Van der Waals:           -25.272406
##########  Ligand Polar Desolv:            12.730826
########## Ligand Apolar Desolv:            -2.643921
##########      Internal Energy:             0.000000
##########      Receptor Energy:             0.000000
########## Receptor Desolvation:             0.000000
########## Receptor Hydrophobic:             0.000000
##########         Total Energy:           -58.028328
##########        Ligand Charge:             1.000000
##########            Arbitrary:    +999.9990
##########        Ligand Energy:             0.000000

@<TRIPOS>MOLECULE
 ZINC000331841617      none
   42    43     0     0     0



@<TRIPOS>ATOM
      1 C1        -16.7321    12.3015   -15.1181 C.3        1  LIG1  -0.1200
      2 C2        -15.5590    13.0995   -14.6100 C.ar       1  LIG1  -0.1000
      3 C3        -14.8552    12.6660   -13.5038 C.ar       1  LIG1  -0.1000
      4 C4        -13.7788    13.3981   -13.0367 C.ar       1  LIG1  -0.1100
      5 C5        -13.4035    14.5654   -13.6754 C.ar       1  LIG1  -0.1100
      6 C6        -14.1031    15.0042   -14.7827 C.ar       1  LIG1  -0.1100
      7 C7        -15.1811    14.2688   -15.2574 C.ar       1  LIG1   0.1100
      8 N1        -15.8915    14.7103   -16.3791 N.am       1  LIG1  -0.6400
      9 C8        -15.9746    16.0283   -16.6484 C.2        1  LIG1   0.5000
     10 O1        -15.4334    16.8316   -15.9183 O.2        1  LIG1  -0.5100
     11 C9        -16.7396    16.5038   -17.8564 C.3        1  LIG1   0.0100
     12 H1        -16.6939    15.7447   -18.6374 H          1  LIG1   0.1700
     13 C10       -16.1209    17.8044   -18.3726 C.3        1  LIG1  -0.1800
     14 N2        -18.1412    16.7416   -17.4861 N.4        1  LIG1  -0.3600
     15 H2        -18.5493    15.8838   -17.1458 H          1  LIG1   0.4300
     16 C11       -18.2027    17.7644   -16.4336 C.3        1  LIG1  -0.0600
     17 C12       -18.8869    17.2051   -18.6638 C.3        1  LIG1  -0.0100
     18 C13       -18.9356    16.1767   -19.8061 C.3        1  LIG1  -0.1400
     19 C14       -20.3991    16.5989   -20.0184 C.3        1  LIG1   0.0900
     20 O2        -21.2739    15.5064   -20.3065 O.3        1  LIG1  -0.5500
     21 C15       -20.4088    17.0227   -18.5402 C.3        1  LIG1  -0.1800
     22 H3        -16.8755    11.4244   -14.4870 H          1  LIG1   0.0800
     23 H4        -17.6301    12.9187   -15.0918 H          1  LIG1   0.0800
     24 H5        -16.5391    11.9842   -16.1429 H          1  LIG1   0.0600
     25 H6        -15.1459    11.7545   -13.0028 H          1  LIG1   0.1300
     26 H7        -13.2305    13.0573   -12.1709 H          1  LIG1   0.1300
     27 H8        -12.5628    15.1352   -13.3079 H          1  LIG1   0.1300
     28 H9        -13.8097    15.9165   -15.2809 H          1  LIG1   0.1400
     29 H10       -16.3242    14.0678   -16.9629 H          1  LIG1   0.4200
     30 H11       -16.6742    18.1482   -19.2465 H          1  LIG1   0.0900
     31 H12       -16.1665    18.5634   -17.5918 H          1  LIG1   0.1100
     32 H13       -15.0809    17.6279   -18.6475 H          1  LIG1   0.1000
     33 H14       -19.2427    17.9408   -16.1588 H          1  LIG1   0.1300
     34 H15       -17.6493    17.4205   -15.5598 H          1  LIG1   0.1300
     35 H16       -17.7619    18.6912   -16.8013 H          1  LIG1   0.1200
     36 H17       -18.5916    18.2037   -18.9857 H          1  LIG1   0.1700
     37 H18       -18.2840    16.4239   -20.6441 H          1  LIG1   0.1100
     38 H19       -18.8228    15.1458   -19.4707 H          1  LIG1   0.1100
     39 H20       -20.5172    17.4304   -20.7132 H          1  LIG1   0.1000
     40 H21       -21.3085    14.8362   -19.6105 H          1  LIG1   0.4000
     41 H22       -20.6988    16.2230   -17.8586 H          1  LIG1   0.1100
     42 H23       -20.9466    17.9528   -18.3562 H          1  LIG1   0.1100
@<TRIPOS>BOND
     1    1    2 1
     2    1   22 1
     3    1   23 1
     4    1   24 1
     5    2    7 ar
     6    2    3 ar
     7    3    4 ar
     8    3   25 1
     9    4    5 ar
    10    4   26 1
    11    5    6 ar
    12    5   27 1
    13    6    7 ar
    14    6   28 1
    15    7    8 1
    16    8    9 am
    17    8   29 1
    18    9   10 2
    19    9   11 1
    20   11   12 1
    21   11   13 1
    22   11   14 1
    23   13   30 1
    24   13   31 1
    25   13   32 1
    26   14   15 1
    27   14   16 1
    28   14   17 1
    29   16   33 1
    30   16   34 1
    31   16   35 1
    32   17   21 1
    33   17   18 1
    34   17   36 1
    35   18   19 1
    36   18   37 1
    37   18   38 1
    38   19   20 1
    39   19   21 1
    40   19   39 1
    41   20   40 1
    42   21   41 1
    43   21   42 1
##########                 Name:     ZINC000377551417
##########          Protonation:                 none
##########               SMILES:   COC(=O)c1cc(C[NH2+][C@@H]2CCCN(c3ccc(C)nn3)C2)cn1C
##########            Long Name:   NO_LONG_NAME
##########          FlexRecCode: 1
##########               Number:                12626
##########   Ligand Source File: /nfs/db/export/3D/ED/ADRO/EDADRO.xdzn.db2.gz
##########                 Rank:                    1
##########               Setnum:                   85
##########             Matchnum:                    1
##########                Cloud:                    1
##########        Electrostatic:           -44.329651
##########                 Gist:             0.000000
##########        Van der Waals:           -29.145939
##########  Ligand Polar Desolv:            20.093132
########## Ligand Apolar Desolv:            -4.632487
##########      Internal Energy:             0.000000
##########      Receptor Energy:             0.000000
########## Receptor Desolvation:             0.000000
########## Receptor Hydrophobic:             0.000000
##########         Total Energy:           -58.014942
##########        Ligand Charge:             1.000000
##########            Arbitrary:    +999.9990
##########        Ligand Energy:             0.000000

@<TRIPOS>MOLECULE
 ZINC000377551417      none
   51    53     0     0     0



@<TRIPOS>ATOM
      1 C1        -12.7990    13.8381   -11.7841 C.3        1  LIG1   0.0400
      2 O1        -13.6494    13.8627   -12.9607 O.3        1  LIG1  -0.3600
      3 C2        -13.9746    15.0743   -13.4562 C.2        1  LIG1   0.5300
      4 O2        -13.5582    16.0828   -12.9187 O.2        1  LIG1  -0.4800
      5 C3        -14.8293    15.1757   -14.6417 C.2        1  LIG1  -0.0300
      6 C4        -15.2354    16.3418   -15.2578 C.2        1  LIG1  -0.0800
      7 C5        -16.0343    15.9724   -16.3440 C.2        1  LIG1  -0.2600
      8 C6        -16.7036    16.9120   -17.3136 C.3        1  LIG1   0.0800
      9 N1        -18.0896    16.4796   -17.5370 N.4        1  LIG1  -0.5000
     10 H1        -18.0932    15.5450   -17.9174 H          1  LIG1   0.4300
     11 H2        -18.5899    16.4879   -16.6607 H          1  LIG1   0.4300
     12 C7        -18.7422    17.3957   -18.4820 C.3        1  LIG1   0.0100
     13 H3        -18.4387    18.4196   -18.2643 H          1  LIG1   0.1400
     14 C8        -20.2615    17.2730   -18.3457 C.3        1  LIG1  -0.1400
     15 C9        -20.9421    18.2506   -19.3067 C.3        1  LIG1  -0.1300
     16 C10       -20.5557    17.8974   -20.7464 C.3        1  LIG1   0.1100
     17 N2        -19.0903    17.8712   -20.8498 N.pl3      1  LIG1  -0.6000
     18 C11       -18.4348    18.6255   -21.8167 C.ar       1  LIG1   0.3300
     19 C12       -17.2213    18.1859   -22.3443 C.ar       1  LIG1  -0.1700
     20 C13       -16.6081    18.9741   -23.3053 C.ar       1  LIG1  -0.0700
     21 C14       -17.2388    20.1511   -23.6833 C.ar       1  LIG1   0.0400
     22 C15       -16.6113    21.0411   -24.7250 C.3        1  LIG1  -0.1000
     23 N3        -18.3869    20.4905   -23.1317 N.ar       1  LIG1  -0.2000
     24 N4        -18.9631    19.7628   -22.2452 N.ar       1  LIG1  -0.3000
     25 C16       -18.3302    17.0333   -19.9124 C.3        1  LIG1   0.1100
     26 C17       -16.0996    14.6193   -16.3702 C.2        1  LIG1   0.0800
     27 N5        -15.3694    14.1247   -15.3486 N.pl3      1  LIG1  -0.4000
     28 C18       -15.1900    12.7046   -15.0369 C.3        1  LIG1   0.0500
     29 H4        -12.6148    12.8047   -11.4904 H          1  LIG1   0.1100
     30 H5        -11.8509    14.3259   -12.0107 H          1  LIG1   0.0700
     31 H6        -13.2929    14.3653   -10.9679 H          1  LIG1   0.0700
     32 H7        -14.9842    17.3484   -14.9578 H          1  LIG1   0.1600
     33 H8        -16.6997    17.9217   -16.9027 H          1  LIG1   0.1400
     34 H9        -16.1632    16.9029   -18.2601 H          1  LIG1   0.1400
     35 H10       -20.5668    16.2548   -18.5870 H          1  LIG1   0.0900
     36 H11       -20.5544    17.5067   -17.3221 H          1  LIG1   0.0900
     37 H12       -22.0237    18.1794   -19.1923 H          1  LIG1   0.1000
     38 H13       -20.6180    19.2666   -19.0818 H          1  LIG1   0.0800
     39 H14       -20.9577    16.9173   -21.0027 H          1  LIG1   0.0800
     40 H15       -20.9568    18.6486   -21.4270 H          1  LIG1   0.1000
     41 H16       -16.7730    17.2605   -22.0140 H          1  LIG1   0.1500
     42 H17       -15.6670    18.6813   -23.7468 H          1  LIG1   0.1600
     43 H18       -17.2461    21.9118   -24.8893 H          1  LIG1   0.0800
     44 H19       -15.6297    21.3670   -24.3809 H          1  LIG1   0.0800
     45 H20       -16.5040    20.4883   -25.6583 H          1  LIG1   0.0800
     46 H21       -17.2632    17.2142   -20.0430 H          1  LIG1   0.1200
     47 H22       -18.5505    15.9824   -20.1002 H          1  LIG1   0.0800
     48 H23       -16.6439    14.0315   -17.0944 H          1  LIG1   0.1800
     49 H24       -15.7317    12.1014   -15.7654 H          1  LIG1   0.0900
     50 H25       -14.1295    12.4552   -15.0756 H          1  LIG1   0.1100
     51 H26       -15.5750    12.5002   -14.0379 H          1  LIG1   0.1000
@<TRIPOS>BOND
     1    1    2 1
     2    1   29 1
     3    1   30 1
     4    1   31 1
     5    2    3 1
     6    3    4 2
     7    3    5 1
     8    5   27 1
     9    5    6 2
    10    6    7 1
    11    6   32 1
    12    7    8 1
    13    7   26 2
    14    8    9 1
    15    8   33 1
    16    8   34 1
    17    9   10 1
    18    9   11 1
    19    9   12 1
    20   12   13 1
    21   12   25 1
    22   12   14 1
    23   14   15 1
    24   14   35 1
    25   14   36 1
    26   15   16 1
    27   15   37 1
    28   15   38 1
    29   16   17 1
    30   16   39 1
    31   16   40 1
    32   17   18 1
    33   17   25 1
    34   18   24 ar
    35   18   19 ar
    36   19   20 ar
    37   19   41 1
    38   20   21 ar
    39   20   42 1
    40   21   22 1
    41   21   23 ar
    42   22   43 1
    43   22   44 1
    44   22   45 1
    45   23   24 ar
    46   25   46 1
    47   25   47 1
    48   26   27 1
    49   26   48 1
    50   27   28 1
    51   28   49 1
    52   28   50 1
    53   28   51 1
##########                 Name:     ZINC000423907942
##########          Protonation:                 none
##########               SMILES:   C[C@@H]([NH2+]C1CC1)C(=O)NC[C@@H]1CCO[C@H]1C1=CC=C(F)C=C1
##########            Long Name:   NO_LONG_NAME
##########          FlexRecCode: 1
##########               Number:                 7446
##########   Ligand Source File: /nfs/db/export/3D/DE/ADRO/DEADRO.xccq.db2.gz
##########                 Rank:                    1
##########               Setnum:                  171
##########             Matchnum:                    1
##########                Cloud:                    1
##########        Electrostatic:           -52.787334
##########                 Gist:             0.000000
##########        Van der Waals:           -21.568054
##########  Ligand Polar Desolv:            19.093399
########## Ligand Apolar Desolv:            -2.807157
##########      Internal Energy:             0.000000
##########      Receptor Energy:             0.000000
########## Receptor Desolvation:             0.000000
########## Receptor Hydrophobic:             0.000000
##########         Total Energy:           -58.069153
##########        Ligand Charge:             1.000000
##########            Arbitrary:    +999.9990
##########        Ligand Energy:             0.000000

@<TRIPOS>MOLECULE
 ZINC000423907942      none
   46    48     0     0     0



@<TRIPOS>ATOM
      1 C1        -17.3440    16.4997   -16.1654 C.3        1  LIG1  -0.1800
      2 C2        -16.3256    15.8234   -17.0857 C.3        1  LIG1   0.0100
      3 H1        -15.3171    16.0449   -16.7365 H          1  LIG1   0.1700
      4 N1        -16.5411    14.3704   -17.0702 N.4        1  LIG1  -0.4700
      5 H2        -17.5314    14.1771   -17.0681 H          1  LIG1   0.4300
      6 H3        -16.1199    13.9591   -17.8898 H          1  LIG1   0.4400
      7 C3        -15.9277    13.7972   -15.8646 C.3        1  LIG1  -0.0900
      8 C4        -16.8653    13.2381   -14.7926 C.3        1  LIG1  -0.1500
      9 C5        -16.0442    12.2849   -15.6635 C.3        1  LIG1  -0.1500
     10 C6        -16.4962    16.3415   -18.4904 C.2        1  LIG1   0.5000
     11 O1        -15.5762    16.9041   -19.0452 O.2        1  LIG1  -0.5300
     12 N2        -17.6713    16.1796   -19.1304 N.am       1  LIG1  -0.7000
     13 C7        -17.8371    16.6833   -20.4960 C.3        1  LIG1   0.1200
     14 C8        -18.3533    18.1229   -20.4494 C.3        1  LIG1  -0.1300
     15 H4        -17.6488    18.7632   -19.9185 H          1  LIG1   0.1000
     16 C9        -19.7450    18.1776   -19.7803 C.3        1  LIG1  -0.1600
     17 C10       -20.6703    18.7365   -20.8839 C.3        1  LIG1   0.0400
     18 O2        -19.7917    19.4670   -21.7671 O.3        1  LIG1  -0.3600
     19 C11       -18.5990    18.6563   -21.8782 C.3        1  LIG1   0.1300
     20 H5        -18.7658    17.8283   -22.5672 H          1  LIG1   0.0900
     21 C12       -17.4354    19.4953   -22.3398 C.ar       1  LIG1  -0.1100
     22 C13       -17.4232    20.8554   -22.0918 C.ar       1  LIG1  -0.0600
     23 C14       -16.3567    21.6259   -22.5146 C.ar       1  LIG1  -0.1500
     24 C15       -15.2999    21.0352   -23.1865 C.ar       1  LIG1   0.1100
     25 F1        -14.2565    21.7873   -23.5999 F          1  LIG1  -0.1300
     26 C16       -15.3130    19.6729   -23.4338 C.ar       1  LIG1  -0.1500
     27 C17       -16.3784    18.9037   -23.0059 C.ar       1  LIG1  -0.0800
     28 H6        -18.3524    16.2781   -16.5146 H          1  LIG1   0.1100
     29 H7        -17.2206    16.1249   -15.1495 H          1  LIG1   0.0900
     30 H8        -17.1841    17.5779   -16.1770 H          1  LIG1   0.1000
     31 H9        -15.0102    14.2804   -15.5288 H          1  LIG1   0.1800
     32 H10       -16.5649    13.3533   -13.7512 H          1  LIG1   0.1400
     33 H11       -17.9372    13.2954   -14.9819 H          1  LIG1   0.1200
     34 H12       -16.5758    11.7153   -16.4257 H          1  LIG1   0.1200
     35 H13       -15.2034    11.7733   -15.1950 H          1  LIG1   0.1400
     36 H14       -18.4072    15.7296   -18.6866 H          1  LIG1   0.4100
     37 H15       -16.8772    16.6581   -21.0117 H          1  LIG1   0.0900
     38 H16       -18.5528    16.0578   -21.0295 H          1  LIG1   0.0900
     39 H17       -20.0652    17.1791   -19.4828 H          1  LIG1   0.0800
     40 H18       -19.7291    18.8469   -18.9201 H          1  LIG1   0.0800
     41 H19       -21.1558    17.9214   -21.4206 H          1  LIG1   0.0700
     42 H20       -21.4154    19.4045   -20.4520 H          1  LIG1   0.1000
     43 H21       -18.2476    21.3158   -21.5676 H          1  LIG1   0.1400
     44 H22       -16.3476    22.6884   -22.3214 H          1  LIG1   0.1400
     45 H23       -14.4893    19.2111   -23.9581 H          1  LIG1   0.1400
     46 H24       -16.3887    17.8410   -23.1984 H          1  LIG1   0.1300
@<TRIPOS>BOND
     1    1    2 1
     2    1   28 1
     3    1   29 1
     4    1   30 1
     5    2    3 1
     6    2    4 1
     7    2   10 1
     8    4    5 1
     9    4    6 1
    10    4    7 1
    11    7    9 1
    12    7    8 1
    13    7   31 1
    14    8    9 1
    15    8   32 1
    16    8   33 1
    17    9   34 1
    18    9   35 1
    19   10   11 2
    20   10   12 am
    21   12   13 1
    22   12   36 1
    23   13   14 1
    24   13   37 1
    25   13   38 1
    26   14   15 1
    27   14   19 1
    28   14   16 1
    29   16   17 1
    30   16   39 1
    31   16   40 1
    32   17   18 1
    33   17   41 1
    34   17   42 1
    35   18   19 1
    36   19   20 1
    37   19   21 1
    38   21   27 ar
    39   21   22 ar
    40   22   23 ar
    41   22   43 1
    42   23   24 ar
    43   23   44 1
    44   24   25 1
    45   24   26 ar
    46   26   27 ar
    47   26   45 1
    48   27   46 1
##########                 Name:     ZINC000657558561
##########          Protonation:                 none
##########               SMILES:   COC1=CC=C(C2=CC=NC=C2)C=C1C[NH2+][C@@H](CO)C1CCC1
##########            Long Name:   NO_LONG_NAME
##########          FlexRecCode: 1
##########               Number:                12238
##########   Ligand Source File: /nfs/db/export/3D/DG/ADRO/DGADRO.xats.db2.gz
##########                 Rank:                    1
##########               Setnum:                   66
##########             Matchnum:                    1
##########                Cloud:                    1
##########        Electrostatic:           -34.202854
##########                 Gist:             0.000000
##########        Van der Waals:           -31.306026
##########  Ligand Polar Desolv:            11.288493
########## Ligand Apolar Desolv:            -3.874858
##########      Internal Energy:             0.000000
##########      Receptor Energy:             0.000000
########## Receptor Desolvation:             0.000000
########## Receptor Hydrophobic:             0.000000
##########         Total Energy:           -58.095245
##########        Ligand Charge:             1.000000
##########            Arbitrary:    +999.9990
##########        Ligand Energy:             0.000000

@<TRIPOS>MOLECULE
 ZINC000657558561      none
   48    50     0     0     0



@<TRIPOS>ATOM
      1 C1        -13.6991    20.0639   -15.9449 C.3        1  LIG1   0.0200
      2 O1        -14.8986    19.4222   -16.3829 O.3        1  LIG1  -0.3200
      3 C2        -15.0809    18.1306   -16.0035 C.ar       1  LIG1   0.1600
      4 C3        -14.1255    17.4972   -15.2203 C.ar       1  LIG1  -0.2000
      5 C4        -14.3077    16.1860   -14.8339 C.ar       1  LIG1  -0.0300
      6 C5        -15.4527    15.4968   -15.2302 C.ar       1  LIG1  -0.0800
      7 C6        -15.6518    14.0867   -14.8160 C.ar       1  LIG1  -0.0100
      8 C7        -16.3653    13.1953   -15.6226 C.ar       1  LIG1  -0.1700
      9 C8        -16.5266    11.8922   -15.1997 C.ar       1  LIG1   0.1100
     10 N1        -16.0184    11.4849   -14.0522 N.ar       1  LIG1  -0.4800
     11 C9        -15.3387    12.2937   -13.2618 C.ar       1  LIG1   0.1100
     12 C10       -15.1260    13.6112   -13.6111 C.ar       1  LIG1  -0.1700
     13 C11       -16.4105    16.1358   -16.0164 C.ar       1  LIG1  -0.0400
     14 C12       -16.2254    17.4484   -16.3952 C.ar       1  LIG1  -0.1900
     15 C13       -17.2604    18.1400   -17.2445 C.3        1  LIG1   0.0500
     16 N2        -17.6812    17.2442   -18.3300 N.4        1  LIG1  -0.5000
     17 H1        -16.8825    17.0074   -18.8994 H          1  LIG1   0.4300
     18 H2        -18.0760    16.4026   -17.9376 H          1  LIG1   0.4300
     19 C14       -18.6903    17.9183   -19.1579 C.3        1  LIG1   0.0400
     20 H3        -19.3702    18.4795   -18.5170 H          1  LIG1   0.1500
     21 C15       -17.9964    18.8766   -20.1281 C.3        1  LIG1   0.0500
     22 O2        -16.8062    18.2662   -20.6309 O.3        1  LIG1  -0.5700
     23 C16       -19.4805    16.8745   -19.9497 C.3        1  LIG1  -0.1300
     24 C17       -20.6198    16.2250   -19.1467 C.3        1  LIG1  -0.1500
     25 C18       -21.4634    16.3035   -20.4301 C.3        1  LIG1  -0.1400
     26 C19       -20.5679    17.4800   -20.8529 C.3        1  LIG1  -0.1200
     27 H4        -13.6788    21.0885   -16.3162 H          1  LIG1   0.1100
     28 H5        -13.6681    20.0715   -14.8553 H          1  LIG1   0.0700
     29 H6        -12.8355    19.5210   -16.3292 H          1  LIG1   0.0700
     30 H7        -13.2387    18.0318   -14.9135 H          1  LIG1   0.1500
     31 H8        -13.5638    15.6935   -14.2252 H          1  LIG1   0.1400
     32 H9        -16.7844    13.5221   -16.5630 H          1  LIG1   0.1300
     33 H10       -17.0767    11.1963   -15.8157 H          1  LIG1   0.1600
     34 H11       -14.9400    11.9181   -12.3311 H          1  LIG1   0.1600
     35 H12       -14.5685    14.2677   -12.9595 H          1  LIG1   0.1400
     36 H13       -17.2985    15.6042   -16.3254 H          1  LIG1   0.1400
     37 H14       -18.1232    18.3959   -16.6294 H          1  LIG1   0.1400
     38 H15       -16.8340    19.0491   -17.6684 H          1  LIG1   0.1400
     39 H16       -18.6670    19.1027   -20.9572 H          1  LIG1   0.0900
     40 H17       -17.7396    19.7987   -19.6067 H          1  LIG1   0.0700
     41 H18       -16.9597    17.4389   -21.1077 H          1  LIG1   0.4100
     42 H19       -18.8393    16.1558   -20.4600 H          1  LIG1   0.1200
     43 H20       -20.4033    15.2053   -18.8282 H          1  LIG1   0.0800
     44 H21       -20.9960    16.8513   -18.3378 H          1  LIG1   0.0900
     45 H22       -21.3653    15.4276   -21.0713 H          1  LIG1   0.0900
     46 H23       -22.5013    16.5861   -20.2537 H          1  LIG1   0.0800
     47 H24       -20.9300    18.4494   -20.5104 H          1  LIG1   0.0900
     48 H25       -20.3095    17.4735   -21.9118 H          1  LIG1   0.0800
@<TRIPOS>BOND
     1    1    2 1
     2    1   27 1
     3    1   28 1
     4    1   29 1
     5    2    3 1
     6    3   14 ar
     7    3    4 ar
     8    4    5 ar
     9    4   30 1
    10    5    6 ar
    11    5   31 1
    12    6    7 1
    13    6   13 ar
    14    7   12 ar
    15    7    8 ar
    16    8    9 ar
    17    8   32 1
    18    9   10 ar
    19    9   33 1
    20   10   11 ar
    21   11   12 ar
    22   11   34 1
    23   12   35 1
    24   13   14 ar
    25   13   36 1
    26   14   15 1
    27   15   16 1
    28   15   37 1
    29   15   38 1
    30   16   17 1
    31   16   18 1
    32   16   19 1
    33   19   20 1
    34   19   21 1
    35   19   23 1
    36   21   22 1
    37   21   39 1
    38   21   40 1
    39   22   41 1
    40   23   26 1
    41   23   24 1
    42   23   42 1
    43   24   25 1
    44   24   43 1
    45   24   44 1
    46   25   26 1
    47   25   45 1
    48   25   46 1
    49   26   47 1
    50   26   48 1
##########                 Name:     ZINC000677171622
##########          Protonation:                 none
##########               SMILES:   CC[N@@H+]1CCN(C(=O)[C@H](C)NC(=O)C2=CC=C(Cl)C=C2)C[C@@H]1C
##########            Long Name:   NO_LONG_NAME
##########          FlexRecCode: 1
##########               Number:                 1001
##########   Ligand Source File: /nfs/db/export/3D/EE/ADRO/EEADRO.xbnn.db2.gz
##########                 Rank:                    1
##########               Setnum:                   43
##########             Matchnum:                    1
##########                Cloud:                    1
##########        Electrostatic:           -42.223198
##########                 Gist:             0.000000
##########        Van der Waals:           -30.183918
##########  Ligand Polar Desolv:            18.704962
########## Ligand Apolar Desolv:            -4.462951
##########      Internal Energy:             0.000000
##########      Receptor Energy:             0.000000
########## Receptor Desolvation:             0.000000
########## Receptor Hydrophobic:             0.000000
##########         Total Energy:           -58.165108
##########        Ligand Charge:             1.000000
##########            Arbitrary:    +999.9990
##########        Ligand Energy:             0.000000

@<TRIPOS>MOLECULE
 ZINC000677171622      none
   48    49     0     0     0



@<TRIPOS>ATOM
      1 C1        -22.3477    15.7844   -19.6621 C.3        1  LIG1  -0.1900
      2 C2        -21.6167    16.6466   -18.6312 C.3        1  LIG1  -0.0100
      3 N1        -20.1662    16.4734   -18.7880 N.4        1  LIG1  -0.3800
      4 H1        -19.9273    15.5034   -18.6461 H          1  LIG1   0.4200
      5 C3        -19.4665    17.2983   -17.7951 C.3        1  LIG1  -0.0300
      6 C4        -17.9601    17.0315   -17.8814 C.3        1  LIG1   0.0900
      7 N2        -17.5260    17.2533   -19.2694 N.am       1  LIG1  -0.6300
      8 C5        -16.4682    18.0408   -19.5472 C.2        1  LIG1   0.5200
      9 O1        -16.1251    18.2118   -20.6979 O.2        1  LIG1  -0.5000
     10 C6        -15.7116    18.7090   -18.4282 C.3        1  LIG1   0.1300
     11 H2        -16.3859    19.3602   -17.8720 H          1  LIG1   0.1100
     12 C7        -14.5664    19.5391   -19.0114 C.3        1  LIG1  -0.1600
     13 N3        -15.1666    17.6884   -17.5296 N.am       1  LIG1  -0.7200
     14 C8        -14.9992    17.9629   -16.2207 C.2        1  LIG1   0.5700
     15 O2        -15.3005    19.0572   -15.7859 O.2        1  LIG1  -0.5300
     16 C9        -14.4495    16.9332   -15.3143 C.ar       1  LIG1  -0.1400
     17 C10       -14.6194    15.5788   -15.6071 C.ar       1  LIG1  -0.0700
     18 C11       -14.1043    14.6226   -14.7574 C.ar       1  LIG1  -0.1200
     19 C12       -13.4195    15.0037   -13.6153 C.ar       1  LIG1  -0.0100
     20 Cl1       -12.7733    13.7942   -12.5508 Cl         1  LIG1  -0.0500
     21 C13       -13.2477    16.3459   -13.3196 C.ar       1  LIG1  -0.1200
     22 C14       -13.7533    17.3112   -14.1646 C.ar       1  LIG1  -0.0400
     23 C15       -18.2791    16.5908   -20.3454 C.3        1  LIG1   0.0800
     24 C16       -19.7701    16.8803   -20.1421 C.3        1  LIG1   0.0100
     25 H3        -20.3523    16.3192   -20.8731 H          1  LIG1   0.1500
     26 C17       -20.0286    18.3772   -20.3245 C.3        1  LIG1  -0.1800
     27 H4        -23.4238    15.9129   -19.5457 H          1  LIG1   0.0800
     28 H5        -22.0519    16.0891   -20.6661 H          1  LIG1   0.0800
     29 H6        -22.0882    14.7369   -19.5091 H          1  LIG1   0.1100
     30 H7        -21.8760    17.6941   -18.7843 H          1  LIG1   0.1300
     31 H8        -21.9125    16.3420   -17.6274 H          1  LIG1   0.1300
     32 H9        -19.6612    18.3518   -17.9955 H          1  LIG1   0.1400
     33 H10       -19.8236    17.0461   -16.7965 H          1  LIG1   0.1500
     34 H11       -17.4287    17.7139   -17.2179 H          1  LIG1   0.1400
     35 H12       -17.7535    16.0009   -17.5933 H          1  LIG1   0.1000
     36 H13       -14.0192    20.0225   -18.2020 H          1  LIG1   0.0900
     37 H14       -13.8922    18.8880   -19.5677 H          1  LIG1   0.0700
     38 H15       -14.9719    20.2985   -19.6800 H          1  LIG1   0.0700
     39 H16       -14.9262    16.8151   -17.8766 H          1  LIG1   0.4100
     40 H17       -15.1535    15.2805   -16.4971 H          1  LIG1   0.1400
     41 H18       -14.2354    13.5745   -14.9827 H          1  LIG1   0.1400
     42 H19       -12.7129    16.6371   -12.4276 H          1  LIG1   0.1500
     43 H20       -13.6186    18.3575   -13.9331 H          1  LIG1   0.1500
     44 H21       -17.9587    16.9817   -21.3111 H          1  LIG1   0.1300
     45 H22       -18.1047    15.5155   -20.3061 H          1  LIG1   0.1000
     46 H23       -19.7339    18.6770   -21.3301 H          1  LIG1   0.1100
     47 H24       -21.0892    18.5829   -20.1801 H          1  LIG1   0.0900
     48 H25       -19.4469    18.9381   -19.5931 H          1  LIG1   0.0800
@<TRIPOS>BOND
     1    1    2 1
     2    1   27 1
     3    1   28 1
     4    1   29 1
     5    2    3 1
     6    2   30 1
     7    2   31 1
     8    3    4 1
     9    3   24 1
    10    3    5 1
    11    5    6 1
    12    5   32 1
    13    5   33 1
    14    6    7 1
    15    6   34 1
    16    6   35 1
    17    7    8 am
    18    7   23 1
    19    8    9 2
    20    8   10 1
    21   10   11 1
    22   10   12 1
    23   10   13 1
    24   12   36 1
    25   12   37 1
    26   12   38 1
    27   13   14 am
    28   13   39 1
    29   14   15 2
    30   14   16 1
    31   16   22 ar
    32   16   17 ar
    33   17   18 ar
    34   17   40 1
    35   18   19 ar
    36   18   41 1
    37   19   20 1
    38   19   21 ar
    39   21   22 ar
    40   21   42 1
    41   22   43 1
    42   23   24 1
    43   23   44 1
    44   23   45 1
    45   24   25 1
    46   24   26 1
    47   26   46 1
    48   26   47 1
    49   26   48 1
##########                 Name:     ZINC000301107260
##########          Protonation:                 none
##########               SMILES:   C[C@H](CNC1=C([N+](=O)[O-])C(=O)N2C=CC=CC2=N1)[N@@H+]1CCC[C@H](C)C1
##########            Long Name:   NO_LONG_NAME
##########          FlexRecCode: 1
##########               Number:                13244
##########   Ligand Source File: /nfs/db/export/3D/EE/BDRO/EEBDRO.xbx.db2.gz
##########                 Rank:                    1
##########               Setnum:                   38
##########             Matchnum:                    1
##########                Cloud:                    1
##########        Electrostatic:           -38.947681
##########                 Gist:             0.000000
##########        Van der Waals:           -33.918026
##########  Ligand Polar Desolv:            21.783829
########## Ligand Apolar Desolv:            -6.976375
##########      Internal Energy:             0.000000
##########      Receptor Energy:             0.000000
########## Receptor Desolvation:             0.000000
########## Receptor Hydrophobic:             0.000000
##########         Total Energy:           -58.058254
##########        Ligand Charge:             1.000000
##########            Arbitrary:    +999.9990
##########        Ligand Energy:             0.000000

@<TRIPOS>MOLECULE
 ZINC000301107260      none
   49    51     0     0     0



@<TRIPOS>ATOM
      1 C1        -17.9439    18.8269   -17.6793 C.3        1  LIG1  -0.1800
      2 C2        -17.8793    17.3044   -17.5432 C.3        1  LIG1   0.0100
      3 H1        -18.0688    17.0238   -16.5072 H          1  LIG1   0.1500
      4 C3        -16.4911    16.8136   -17.9588 C.3        1  LIG1   0.0900
      5 N1        -15.5506    17.0158   -16.8539 N.pl3      1  LIG1  -0.7100
      6 C4        -15.3664    16.0207   -15.9118 C.2        1  LIG1   0.5500
      7 C5        -14.4770    16.2130   -14.8574 C.2        1  LIG1  -0.3400
      8 N2        -13.7209    17.4798   -14.7316 N.pl3      1  LIG1   0.0900
      9 O1        -13.8741    18.3646   -15.5545 O.2        1  LIG1  -0.2600
     10 O2        -12.9458    17.6369   -13.8054 O.2        1  LIG1  -0.1100
     11 C6        -14.3113    15.1933   -13.9230 C.2        1  LIG1   0.5500
     12 O3        -13.5390    15.3316   -12.9865 O.2        1  LIG1  -0.4600
     13 N3        -15.0156    14.0504   -14.0652 N.am       1  LIG1  -0.4300
     14 C7        -14.8597    13.0477   -13.1554 C.2        1  LIG1   0.1200
     15 C8        -15.5519    11.8932   -13.2736 C.2        1  LIG1  -0.1600
     16 C9        -16.4440    11.7123   -14.3405 C.2        1  LIG1   0.0100
     17 C10       -16.6077    12.7078   -15.2557 C.2        1  LIG1  -0.1500
     18 C11       -15.8785    13.9040   -15.1157 C.2        1  LIG1   0.4500
     19 N4        -16.0425    14.8784   -16.0069 N.2        1  LIG1  -0.5800
     20 N5        -18.8950    16.6919   -18.4100 N.4        1  LIG1  -0.3900
     21 H2        -18.6527    15.7273   -18.5805 H          1  LIG1   0.4200
     22 C12       -18.9474    17.4147   -19.6863 C.3        1  LIG1  -0.0200
     23 C13       -19.9458    16.7316   -20.6234 C.3        1  LIG1  -0.1500
     24 C14       -21.3329    16.7376   -19.9743 C.3        1  LIG1  -0.1300
     25 C15       -21.2503    16.0463   -18.6102 C.3        1  LIG1  -0.1100
     26 H3        -20.9637    15.0035   -18.7474 H          1  LIG1   0.1000
     27 C16       -22.6138    16.1146   -17.9195 C.3        1  LIG1  -0.1500
     28 C17       -20.2038    16.7564   -17.7487 C.3        1  LIG1  -0.0100
     29 H4        -17.7544    19.1074   -18.7155 H          1  LIG1   0.0900
     30 H5        -18.9329    19.1765   -17.3833 H          1  LIG1   0.1100
     31 H6        -17.1903    19.2815   -17.0362 H          1  LIG1   0.0900
     32 H7        -16.5394    15.7528   -18.2052 H          1  LIG1   0.1000
     33 H8        -16.1534    17.3740   -18.8305 H          1  LIG1   0.1200
     34 H9        -15.0571    17.8479   -16.7832 H          1  LIG1   0.4200
     35 H10       -14.1745    13.1771   -12.3306 H          1  LIG1   0.2000
     36 H11       -15.4177    11.1077   -12.5447 H          1  LIG1   0.1800
     37 H12       -16.9970    10.7896   -14.4361 H          1  LIG1   0.1700
     38 H13       -17.2911    12.5804   -16.0822 H          1  LIG1   0.1800
     39 H14       -19.2618    18.4431   -19.5084 H          1  LIG1   0.1400
     40 H15       -17.9587    17.4124   -20.1455 H          1  LIG1   0.1300
     41 H16       -19.9845    17.2709   -21.5697 H          1  LIG1   0.1100
     42 H17       -19.6320    15.7032   -20.8022 H          1  LIG1   0.0900
     43 H18       -21.6690    17.7660   -19.8419 H          1  LIG1   0.0800
     44 H19       -22.0361    16.2022   -20.6122 H          1  LIG1   0.1000
     45 H20       -22.5543    15.6223   -16.9487 H          1  LIG1   0.0800
     46 H21       -22.8993    17.1574   -17.7813 H          1  LIG1   0.0700
     47 H22       -23.3591    15.6125   -18.5363 H          1  LIG1   0.0700
     48 H23       -20.1419    16.2675   -16.7764 H          1  LIG1   0.1300
     49 H24       -20.4925    17.7986   -17.6126 H          1  LIG1   0.1300
@<TRIPOS>BOND
     1    1    2 1
     2    1   29 1
     3    1   30 1
     4    1   31 1
     5    2    3 1
     6    2    4 1
     7    2   20 1
     8    4    5 1
     9    4   32 1
    10    4   33 1
    11    5    6 1
    12    5   34 1
    13    6   19 1
    14    6    7 2
    15    7    8 1
    16    7   11 1
    17    8    9 2
    18    8   10 2
    19   11   12 2
    20   11   13 am
    21   13   18 1
    22   13   14 1
    23   14   15 2
    24   14   35 1
    25   15   16 1
    26   15   36 1
    27   16   17 2
    28   16   37 1
    29   17   18 1
    30   17   38 1
    31   18   19 2
    32   20   21 1
    33   20   28 1
    34   20   22 1
    35   22   23 1
    36   22   39 1
    37   22   40 1
    38   23   24 1
    39   23   41 1
    40   23   42 1
    41   24   25 1
    42   24   43 1
    43   24   44 1
    44   25   26 1
    45   25   27 1
    46   25   28 1
    47   27   45 1
    48   27   46 1
    49   27   47 1
    50   28   48 1
    51   28   49 1
##########                 Name:     ZINC000443186619
##########          Protonation:                 none
##########               SMILES:   C[C@@H](NC(=O)NC[C@H]1CC[N@H+](C2CC2)C1)C1=CC=C(Br)S1
##########            Long Name:   NO_LONG_NAME
##########          FlexRecCode: 1
##########               Number:                 5614
##########   Ligand Source File: /nfs/db/export/3D/FG/ADMO/FGADMO.xban.db2.gz
##########                 Rank:                    1
##########               Setnum:                   92
##########             Matchnum:                    1
##########                Cloud:                    1
##########        Electrostatic:           -42.288410
##########                 Gist:             0.000000
##########        Van der Waals:           -26.516935
##########  Ligand Polar Desolv:            14.348681
########## Ligand Apolar Desolv:            -3.692627
##########      Internal Energy:             0.000000
##########      Receptor Energy:             0.000000
########## Receptor Desolvation:             0.000000
########## Receptor Hydrophobic:             0.000000
##########         Total Energy:           -58.149288
##########        Ligand Charge:             1.000000
##########            Arbitrary:    +999.9990
##########        Ligand Energy:             0.000000

@<TRIPOS>MOLECULE
 ZINC000443186619      none
   44    46     0     0     0



@<TRIPOS>ATOM
      1 C1        -12.6882    21.1378   -18.7402 C.3        1  LIG1  -0.1600
      2 C2        -13.3131    21.0114   -17.3494 C.3        1  LIG1   0.2400
      3 H1        -14.2551    21.5592   -17.3230 H          1  LIG1   0.1100
      4 N1        -13.5614    19.5985   -17.0522 N.am       1  LIG1  -0.7400
      5 C3        -14.8155    19.1729   -16.8019 C.2        1  LIG1   0.7100
      6 O1        -15.7407    19.9614   -16.8227 O.2        1  LIG1  -0.5800
      7 N2        -15.0440    17.8730   -16.5287 N.am       1  LIG1  -0.7500
      8 C4        -16.4072    17.4103   -16.2566 C.3        1  LIG1   0.1500
      9 C5        -17.2939    17.6941   -17.4707 C.3        1  LIG1  -0.1200
     10 H2        -17.3201    18.7624   -17.6858 H          1  LIG1   0.1200
     11 C6        -16.8016    16.8976   -18.7077 C.3        1  LIG1  -0.1400
     12 C7        -18.1054    16.7652   -19.5337 C.3        1  LIG1   0.0000
     13 N3        -19.1716    16.5716   -18.5280 N.4        1  LIG1  -0.3600
     14 H3        -19.3555    15.5862   -18.4136 H          1  LIG1   0.4300
     15 C8        -20.3949    17.2564   -18.9664 C.3        1  LIG1  -0.0800
     16 C9        -21.3992    16.4494   -19.7917 C.3        1  LIG1  -0.1500
     17 C10       -21.7175    16.8106   -18.3395 C.3        1  LIG1  -0.1600
     18 C11       -18.7194    17.1478   -17.2450 C.3        1  LIG1   0.0000
     19 C12       -12.3709    21.5828   -16.3214 C.2        1  LIG1  -0.1900
     20 C13       -11.4267    20.8953   -15.6778 C.2        1  LIG1  -0.1200
     21 C14       -10.6798    21.6336   -14.7755 C.2        1  LIG1  -0.0900
     22 C15       -11.0184    22.9217   -14.6870 C.2        1  LIG1  -0.2000
     23 Br1       -10.1944    24.1901   -13.5523 Br         1  LIG1   0.0200
     24 S1        -12.3437    23.2602   -15.7930 S.3        1  LIG1   0.1600
     25 H4        -11.7463    20.5899   -18.7665 H          1  LIG1   0.0600
     26 H5        -13.3698    20.7247   -19.4836 H          1  LIG1   0.0700
     27 H6        -12.5033    22.1890   -18.9613 H          1  LIG1   0.0800
     28 H7        -12.8233    18.9694   -17.0356 H          1  LIG1   0.4000
     29 H8        -14.3059    17.2439   -16.5120 H          1  LIG1   0.4000
     30 H9        -16.3944    16.3386   -16.0587 H          1  LIG1   0.0800
     31 H10       -16.8025    17.9358   -15.3873 H          1  LIG1   0.0800
     32 H11       -16.0461    17.4583   -19.2578 H          1  LIG1   0.1200
     33 H12       -16.4231    15.9179   -18.4158 H          1  LIG1   0.1000
     34 H13       -18.2852    17.6745   -20.1072 H          1  LIG1   0.1300
     35 H14       -18.0483    15.9022   -20.1971 H          1  LIG1   0.1400
     36 H15       -20.2821    18.3141   -19.2044 H          1  LIG1   0.1800
     37 H16       -21.9471    16.9761   -20.5730 H          1  LIG1   0.1300
     38 H17       -21.1522    15.4104   -20.0093 H          1  LIG1   0.1200
     39 H18       -21.6798    16.0091   -17.6017 H          1  LIG1   0.1200
     40 H19       -22.4748    17.5749   -18.1652 H          1  LIG1   0.1300
     41 H20       -18.7003    16.3742   -16.4773 H          1  LIG1   0.1400
     42 H21       -19.3878    17.9548   -16.9448 H          1  LIG1   0.1400
     43 H22       -11.2575    19.8421   -15.8474 H          1  LIG1   0.1500
     44 H23        -9.8841    21.2002   -14.1878 H          1  LIG1   0.1600
@<TRIPOS>BOND
     1    1    2 1
     2    1   25 1
     3    1   26 1
     4    1   27 1
     5    2    3 1
     6    2    4 1
     7    2   19 1
     8    4    5 am
     9    4   28 1
    10    5    6 2
    11    5    7 am
    12    7    8 1
    13    7   29 1
    14    8    9 1
    15    8   30 1
    16    8   31 1
    17    9   10 1
    18    9   18 1
    19    9   11 1
    20   11   12 1
    21   11   32 1
    22   11   33 1
    23   12   13 1
    24   12   34 1
    25   12   35 1
    26   13   14 1
    27   13   15 1
    28   13   18 1
    29   15   17 1
    30   15   16 1
    31   15   36 1
    32   16   17 1
    33   16   37 1
    34   16   38 1
    35   17   39 1
    36   17   40 1
    37   18   41 1
    38   18   42 1
    39   19   24 1
    40   19   20 2
    41   20   21 1
    42   20   43 1
    43   21   22 2
    44   21   44 1
    45   22   23 1
    46   22   24 1
##########                 Name:     ZINC000583573677
##########          Protonation:                 none
##########               SMILES:   CC1=NC=CC=C1NC(=O)[C@@H]1CC[N@H+](CC2=CC=CC=C2)C1
##########            Long Name:   NO_LONG_NAME
##########          FlexRecCode: 1
##########               Number:                10710
##########   Ligand Source File: /nfs/db/export/3D/CF/ADRO/CFADRO.xbbh.db2.gz
##########                 Rank:                    1
##########               Setnum:                   34
##########             Matchnum:                    1
##########                Cloud:                    1
##########        Electrostatic:           -37.740578
##########                 Gist:             0.000000
##########        Van der Waals:           -30.539827
##########  Ligand Polar Desolv:            15.312512
########## Ligand Apolar Desolv:            -5.010105
##########      Internal Energy:             0.000000
##########      Receptor Energy:             0.000000
########## Receptor Desolvation:             0.000000
########## Receptor Hydrophobic:             0.000000
##########         Total Energy:           -57.977997
##########        Ligand Charge:             1.000000
##########            Arbitrary:    +999.9990
##########        Ligand Energy:             0.000000

@<TRIPOS>MOLECULE
 ZINC000583573677      none
   44    46     0     0     0



@<TRIPOS>ATOM
      1 C1        -16.5231    11.8391   -16.4946 C.3        1  LIG1  -0.1100
      2 C2        -15.7122    12.2216   -15.2835 C.ar       1  LIG1   0.1200
      3 N1        -15.0994    11.2858   -14.5866 N.ar       1  LIG1  -0.4600
      4 C3        -14.3790    11.5732   -13.5200 C.ar       1  LIG1   0.1000
      5 C4        -14.2382    12.8788   -13.0886 C.ar       1  LIG1  -0.1600
      6 C5        -14.8653    13.8950   -13.7912 C.ar       1  LIG1  -0.0700
      7 C6        -15.6135    13.5573   -14.9160 C.ar       1  LIG1   0.0700
      8 N2        -16.2652    14.5482   -15.6590 N.am       1  LIG1  -0.6500
      9 C7        -15.7459    15.7900   -15.7279 C.2        1  LIG1   0.5300
     10 O1        -14.7137    16.0487   -15.1460 O.2        1  LIG1  -0.5100
     11 C8        -16.4478    16.8569   -16.5279 C.3        1  LIG1  -0.1300
     12 H1        -15.9015    17.7991   -16.4821 H          1  LIG1   0.1400
     13 C9        -17.9117    17.0393   -16.0475 C.3        1  LIG1  -0.1300
     14 C10       -18.6247    17.5822   -17.3036 C.3        1  LIG1  -0.0100
     15 N3        -17.8160    17.1855   -18.4708 N.4        1  LIG1  -0.3900
     16 H2        -17.4954    18.0092   -18.9577 H          1  LIG1   0.4300
     17 C11       -18.6261    16.3591   -19.3757 C.3        1  LIG1   0.0500
     18 C12       -19.5110    17.2480   -20.2109 C.ar       1  LIG1  -0.1600
     19 C13       -20.7720    17.5892   -19.7589 C.ar       1  LIG1  -0.1000
     20 C14       -21.5836    18.4046   -20.5251 C.ar       1  LIG1  -0.1100
     21 C15       -21.1342    18.8793   -21.7431 C.ar       1  LIG1  -0.0800
     22 C16       -19.8729    18.5387   -22.1948 C.ar       1  LIG1  -0.1100
     23 C17       -19.0594    17.7268   -21.4266 C.ar       1  LIG1  -0.0900
     24 C18       -16.6531    16.4054   -17.9953 C.3        1  LIG1   0.0100
     25 H3        -16.4878    10.7580   -16.6291 H          1  LIG1   0.0800
     26 H4        -17.5572    12.1541   -16.3540 H          1  LIG1   0.0900
     27 H5        -16.1110    12.3286   -17.3772 H          1  LIG1   0.0700
     28 H6        -13.8925    10.7772   -12.9757 H          1  LIG1   0.1600
     29 H7        -13.6465    13.1043   -12.2137 H          1  LIG1   0.1400
     30 H8        -14.7729    14.9240   -13.4766 H          1  LIG1   0.1500
     31 H9        -17.0908    14.3412   -16.1244 H          1  LIG1   0.4200
     32 H10       -18.3396    16.0838   -15.7442 H          1  LIG1   0.1100
     33 H11       -17.9628    17.7616   -15.2327 H          1  LIG1   0.1200
     34 H12       -19.6225    17.1501   -17.3796 H          1  LIG1   0.1400
     35 H13       -18.6919    18.6691   -17.2513 H          1  LIG1   0.1400
     36 H14       -17.9692    15.7837   -20.0281 H          1  LIG1   0.1400
     37 H15       -19.2440    15.6780   -18.7904 H          1  LIG1   0.1400
     38 H16       -21.1230    17.2185   -18.8073 H          1  LIG1   0.1300
     39 H17       -22.5691    18.6708   -20.1722 H          1  LIG1   0.1400
     40 H18       -21.7686    19.5158   -22.3421 H          1  LIG1   0.1400
     41 H19       -19.5218    18.9092   -23.1465 H          1  LIG1   0.1400
     42 H20       -18.0741    17.4608   -21.7794 H          1  LIG1   0.1300
     43 H21       -15.7708    16.6375   -18.5919 H          1  LIG1   0.1500
     44 H22       -16.8699    15.3379   -18.0363 H          1  LIG1   0.1500
@<TRIPOS>BOND
     1    1    2 1
     2    1   25 1
     3    1   26 1
     4    1   27 1
     5    2    7 ar
     6    2    3 ar
     7    3    4 ar
     8    4    5 ar
     9    4   28 1
    10    5    6 ar
    11    5   29 1
    12    6    7 ar
    13    6   30 1
    14    7    8 1
    15    8    9 am
    16    8   31 1
    17    9   10 2
    18    9   11 1
    19   11   12 1
    20   11   24 1
    21   11   13 1
    22   13   14 1
    23   13   32 1
    24   13   33 1
    25   14   15 1
    26   14   34 1
    27   14   35 1
    28   15   16 1
    29   15   17 1
    30   15   24 1
    31   17   18 1
    32   17   36 1
    33   17   37 1
    34   18   23 ar
    35   18   19 ar
    36   19   20 ar
    37   19   38 1
    38   20   21 ar
    39   20   39 1
    40   21   22 ar
    41   21   40 1
    42   22   23 ar
    43   22   41 1
    44   23   42 1
    45   24   43 1
    46   24   44 1
##########                 Name:     ZINC000290113490
##########          Protonation:                 none
##########               SMILES:   COC1=CC=C(C[NH2+]C2CCN(C3=CC=CC=C3)CC2)C(OC)=N1
##########            Long Name:   NO_LONG_NAME
##########          FlexRecCode: 1
##########               Number:                11015
##########   Ligand Source File: /nfs/db/export/3D/EF/ADRO/EFADRO.xaag.db2.gz
##########                 Rank:                    1
##########               Setnum:                  109
##########             Matchnum:                    1
##########                Cloud:                    1
##########        Electrostatic:           -46.611404
##########                 Gist:             0.000000
##########        Van der Waals:           -30.595598
##########  Ligand Polar Desolv:            20.685829
########## Ligand Apolar Desolv:            -1.473507
##########      Internal Energy:             0.000000
##########      Receptor Energy:             0.000000
########## Receptor Desolvation:             0.000000
########## Receptor Hydrophobic:             0.000000
##########         Total Energy:           -57.994678
##########        Ligand Charge:             1.000000
##########            Arbitrary:    +999.9990
##########        Ligand Energy:             0.000000

@<TRIPOS>MOLECULE
 ZINC000290113490      none
   50    52     0     0     0



@<TRIPOS>ATOM
      1 C1        -14.6351    10.6813   -12.0264 C.3        1  LIG1   0.0300
      2 O1        -15.4771    10.6618   -13.1809 O.3        1  LIG1  -0.2900
      3 C2        -15.5601    11.8079   -13.9021 C.ar       1  LIG1   0.4000
      4 C3        -16.3665    11.8520   -15.0304 C.ar       1  LIG1  -0.2200
      5 C4        -16.4450    13.0271   -15.7609 C.ar       1  LIG1   0.0200
      6 C5        -15.7108    14.1217   -15.3346 C.ar       1  LIG1  -0.2800
      7 C6        -15.7659    15.4203   -16.0975 C.3        1  LIG1   0.0700
      8 N1        -16.6643    15.2732   -17.2503 N.4        1  LIG1  -0.5100
      9 H1        -16.3192    14.5425   -17.8546 H          1  LIG1   0.4300
     10 H2        -17.5896    15.0336   -16.9272 H          1  LIG1   0.4300
     11 C7        -16.7185    16.5535   -18.0026 C.3        1  LIG1   0.0200
     12 C8        -15.3133    16.9167   -18.4684 C.3        1  LIG1  -0.1400
     13 C9        -15.3317    18.1786   -19.3318 C.3        1  LIG1   0.0500
     14 N2        -16.2977    18.0399   -20.4285 N.pl3      1  LIG1  -0.4900
     15 C10       -16.1409    18.8139   -21.5848 C.ar       1  LIG1   0.1000
     16 C11       -15.5497    20.0684   -21.5079 C.ar       1  LIG1  -0.1700
     17 C12       -15.3962    20.8290   -22.6504 C.ar       1  LIG1  -0.0900
     18 C13       -15.8308    20.3432   -23.8699 C.ar       1  LIG1  -0.1300
     19 C14       -16.4199    19.0946   -23.9501 C.ar       1  LIG1  -0.0900
     20 C15       -16.5712    18.3263   -22.8125 C.ar       1  LIG1  -0.1400
     21 C16       -17.6665    17.6563   -20.0517 C.3        1  LIG1   0.0600
     22 C17       -17.6529    16.3901   -19.1960 C.3        1  LIG1  -0.1400
     23 C18       -14.9240    14.0090   -14.1967 C.ar       1  LIG1   0.3900
     24 O2        -14.2015    15.0758   -13.7719 O.3        1  LIG1  -0.3100
     25 C19       -13.4116    14.8970   -12.5945 C.3        1  LIG1   0.0400
     26 N3        -14.8755    12.8737   -13.5188 N.ar       1  LIG1  -0.5900
     27 H3        -14.6590     9.7046   -11.5428 H          1  LIG1   0.0600
     28 H4        -13.6131    10.9134   -12.3259 H          1  LIG1   0.0700
     29 H5        -14.9910    11.4404   -11.3299 H          1  LIG1   0.1100
     30 H6        -16.9262    10.9804   -15.3363 H          1  LIG1   0.1600
     31 H7        -17.0648    13.0880   -16.6432 H          1  LIG1   0.1600
     32 H8        -16.1386    16.2096   -15.4446 H          1  LIG1   0.1400
     33 H9        -14.7662    15.6793   -16.4466 H          1  LIG1   0.1400
     34 H10       -17.1011    17.3312   -17.3372 H          1  LIG1   0.1400
     35 H11       -14.6700    17.0852   -17.5945 H          1  LIG1   0.1000
     36 H12       -14.8944    16.0854   -19.0508 H          1  LIG1   0.1000
     37 H13       -15.6070    19.0384   -18.7130 H          1  LIG1   0.0600
     38 H14       -14.3335    18.3490   -19.7475 H          1  LIG1   0.1000
     39 H15       -15.2107    20.4489   -20.5557 H          1  LIG1   0.1300
     40 H16       -14.9365    21.8046   -22.5913 H          1  LIG1   0.1300
     41 H17       -15.7102    20.9401   -24.7618 H          1  LIG1   0.1300
     42 H18       -16.7580    18.7179   -24.9042 H          1  LIG1   0.1300
     43 H19       -17.0311    17.3512   -22.8758 H          1  LIG1   0.1300
     44 H20       -18.1278    18.4726   -19.4874 H          1  LIG1   0.0600
     45 H21       -18.2537    17.4776   -20.9577 H          1  LIG1   0.1000
     46 H22       -17.3200    15.5423   -19.8080 H          1  LIG1   0.1000
     47 H23       -18.6697    16.1828   -18.8390 H          1  LIG1   0.1000
     48 H24       -12.8859    15.8240   -12.3654 H          1  LIG1   0.0700
     49 H25       -14.0593    14.6306   -11.7594 H          1  LIG1   0.0700
     50 H26       -12.6868    14.0999   -12.7608 H          1  LIG1   0.1100
@<TRIPOS>BOND
     1    1    2 1
     2    1   27 1
     3    1   28 1
     4    1   29 1
     5    2    3 1
     6    3   26 ar
     7    3    4 ar
     8    4    5 ar
     9    4   30 1
    10    5    6 ar
    11    5   31 1
    12    6    7 1
    13    6   23 ar
    14    7    8 1
    15    7   32 1
    16    7   33 1
    17    8    9 1
    18    8   10 1
    19    8   11 1
    20   11   22 1
    21   11   12 1
    22   11   34 1
    23   12   13 1
    24   12   35 1
    25   12   36 1
    26   13   14 1
    27   13   37 1
    28   13   38 1
    29   14   15 1
    30   14   21 1
    31   15   20 ar
    32   15   16 ar
    33   16   17 ar
    34   16   39 1
    35   17   18 ar
    36   17   40 1
    37   18   19 ar
    38   18   41 1
    39   19   20 ar
    40   19   42 1
    41   20   43 1
    42   21   22 1
    43   21   44 1
    44   21   45 1
    45   22   46 1
    46   22   47 1
    47   23   24 1
    48   23   26 ar
    49   24   25 1
    50   25   48 1
    51   25   49 1
    52   25   50 1
##########                 Name:     ZINC000481826469
##########          Protonation:                 none
##########               SMILES:   Cn1c(C[NH2+][C@H]2CC[C@@H](c3ccccc3F)C2)nc2ccccc21
##########            Long Name:   NO_LONG_NAME
##########          FlexRecCode: 1
##########               Number:                12039
##########   Ligand Source File: /nfs/db/export/3D/DI/ADRO/DIADRO.xff.db2.gz
##########                 Rank:                    1
##########               Setnum:                   38
##########             Matchnum:                    1
##########                Cloud:                    1
##########        Electrostatic:           -41.393669
##########                 Gist:             0.000000
##########        Van der Waals:           -29.905535
##########  Ligand Polar Desolv:            18.974043
########## Ligand Apolar Desolv:            -5.663064
##########      Internal Energy:             0.000000
##########      Receptor Energy:             0.000000
########## Receptor Desolvation:             0.000000
########## Receptor Hydrophobic:             0.000000
##########         Total Energy:           -57.988224
##########        Ligand Charge:             1.000000
##########            Arbitrary:    +999.9990
##########        Ligand Energy:             0.000000

@<TRIPOS>MOLECULE
 ZINC000481826469      none
   47    50     0     0     0



@<TRIPOS>ATOM
      1 C1        -20.3230    19.0737   -21.7729 C.3        1  LIG1   0.0600
      2 N1        -18.9021    18.8939   -21.4643 N.pl3      1  LIG1  -0.4800
      3 C2        -17.8502    19.6027   -22.0095 C.ar       1  LIG1   0.0700
      4 C3        -17.7545    20.6267   -22.9413 C.ar       1  LIG1  -0.1200
      5 C4        -16.5156    21.1296   -23.2788 C.ar       1  LIG1  -0.0700
      6 C5        -15.3663    20.6183   -22.6937 C.ar       1  LIG1  -0.1200
      7 C6        -15.4412    19.6098   -21.7748 C.ar       1  LIG1  -0.0500
      8 C7        -16.6857    19.0855   -21.4168 C.ar       1  LIG1   0.0400
      9 N2        -17.0787    18.1085   -20.5596 N.2        1  LIG1  -0.4400
     10 C8        -18.3751    18.0015   -20.5831 C.2        1  LIG1   0.1900
     11 C9        -19.1756    17.0233   -19.7625 C.3        1  LIG1   0.0900
     12 N3        -18.2671    16.2252   -18.9284 N.4        1  LIG1  -0.5000
     13 H1        -18.8030    15.5703   -18.3789 H          1  LIG1   0.4300
     14 H2        -17.6237    15.7208   -19.5196 H          1  LIG1   0.4300
     15 C10       -17.5151    17.1151   -18.0335 C.3        1  LIG1   0.0200
     16 H3        -17.2220    18.0239   -18.5590 H          1  LIG1   0.1500
     17 C11       -18.3536    17.4596   -16.7853 C.3        1  LIG1  -0.1400
     18 C12       -17.3772    17.4972   -15.5966 C.3        1  LIG1  -0.1200
     19 C13       -15.9795    17.1742   -16.1640 C.3        1  LIG1  -0.0400
     20 H4        -15.4363    18.0926   -16.3862 H          1  LIG1   0.1000
     21 C14       -15.2003    16.3236   -15.1943 C.ar       1  LIG1  -0.1300
     22 C15       -15.6847    15.0858   -14.8167 C.ar       1  LIG1  -0.0900
     23 C16       -14.9700    14.3052   -13.9269 C.ar       1  LIG1  -0.1200
     24 C17       -13.7706    14.7622   -13.4138 C.ar       1  LIG1  -0.0800
     25 C18       -13.2842    16.0002   -13.7896 C.ar       1  LIG1  -0.1500
     26 C19       -13.9957    16.7799   -14.6855 C.ar       1  LIG1   0.1100
     27 F1        -13.5215    17.9900   -15.0537 F          1  LIG1  -0.1400
     28 C20       -16.2688    16.3891   -17.4692 C.3        1  LIG1  -0.1400
     29 H5        -20.4362    19.8625   -22.5167 H          1  LIG1   0.0800
     30 H6        -20.7300    18.1422   -22.1665 H          1  LIG1   0.1000
     31 H7        -20.8597    19.3501   -20.8655 H          1  LIG1   0.0900
     32 H8        -18.6462    21.0278   -23.4002 H          1  LIG1   0.1300
     33 H9        -16.4395    21.9264   -24.0037 H          1  LIG1   0.1400
     34 H10       -14.4024    21.0212   -22.9677 H          1  LIG1   0.1400
     35 H11       -14.5400    19.2188   -21.3261 H          1  LIG1   0.1400
     36 H12       -19.8708    17.5682   -19.1238 H          1  LIG1   0.1500
     37 H13       -19.7335    16.3629   -20.4265 H          1  LIG1   0.1700
     38 H14       -18.8269    18.4335   -16.9106 H          1  LIG1   0.1000
     39 H15       -19.1117    16.6938   -16.6216 H          1  LIG1   0.0900
     40 H16       -17.3766    18.4893   -15.1450 H          1  LIG1   0.0900
     41 H17       -17.6615    16.7496   -14.8561 H          1  LIG1   0.0900
     42 H18       -16.6220    14.7280   -15.2164 H          1  LIG1   0.1300
     43 H19       -15.3493    13.3379   -13.6323 H          1  LIG1   0.1300
     44 H20       -13.2133    14.1517   -12.7185 H          1  LIG1   0.1400
     45 H21       -12.3474    16.3573   -13.3880 H          1  LIG1   0.1400
     46 H22       -16.4979    15.3463   -17.2500 H          1  LIG1   0.1000
     47 H23       -15.4285    16.4642   -18.1594 H          1  LIG1   0.1000
@<TRIPOS>BOND
     1    1    2 1
     2    1   29 1
     3    1   30 1
     4    1   31 1
     5    2   10 1
     6    2    3 1
     7    3    8 ar
     8    3    4 ar
     9    4    5 ar
    10    4   32 1
    11    5    6 ar
    12    5   33 1
    13    6    7 ar
    14    6   34 1
    15    7    8 ar
    16    7   35 1
    17    8    9 1
    18    9   10 2
    19   10   11 1
    20   11   12 1
    21   11   36 1
    22   11   37 1
    23   12   13 1
    24   12   14 1
    25   12   15 1
    26   15   16 1
    27   15   28 1
    28   15   17 1
    29   17   18 1
    30   17   38 1
    31   17   39 1
    32   18   19 1
    33   18   40 1
    34   18   41 1
    35   19   20 1
    36   19   21 1
    37   19   28 1
    38   21   26 ar
    39   21   22 ar
    40   22   23 ar
    41   22   42 1
    42   23   24 ar
    43   23   43 1
    44   24   25 ar
    45   24   44 1
    46   25   26 ar
    47   25   45 1
    48   26   27 1
    49   28   46 1
    50   28   47 1
##########                 Name:     ZINC000354634820
##########          Protonation:                 none
##########               SMILES:   CC[C@H](CC(F)(F)F)[NH2+]Cc1cn(-c2ccccc2)nc1C
##########            Long Name:   NO_LONG_NAME
##########          FlexRecCode: 1
##########               Number:                 4194
##########   Ligand Source File: /nfs/db/export/3D/DI/ADRO/DIADRO.xep.db2.gz
##########                 Rank:                    1
##########               Setnum:                   51
##########             Matchnum:                    1
##########                Cloud:                    1
##########        Electrostatic:           -39.809479
##########                 Gist:             0.000000
##########        Van der Waals:           -25.844715
##########  Ligand Polar Desolv:            13.192112
########## Ligand Apolar Desolv:            -5.582821
##########      Internal Energy:             0.000000
##########      Receptor Energy:             0.000000
########## Receptor Desolvation:             0.000000
########## Receptor Hydrophobic:             0.000000
##########         Total Energy:           -58.044899
##########        Ligand Charge:             1.000000
##########            Arbitrary:    +999.9990
##########        Ligand Energy:             0.000000

@<TRIPOS>MOLECULE
 ZINC000354634820      none
   43    44     0     0     0



@<TRIPOS>ATOM
      1 C1        -20.5165    18.7439   -20.7025 C.3        1  LIG1  -0.1800
      2 C2        -19.7055    18.4611   -19.4362 C.3        1  LIG1  -0.1500
      3 C3        -19.2887    16.9891   -19.4158 C.3        1  LIG1   0.0200
      4 H1        -18.6799    16.7716   -20.2933 H          1  LIG1   0.1600
      5 C4        -20.5376    16.1053   -19.4298 C.3        1  LIG1  -0.2000
      6 C5        -21.3923    16.4105   -18.1980 C.3        1  LIG1   0.4500
      7 F1        -21.7733    17.7565   -18.2167 F          1  LIG1  -0.1900
      8 F2        -22.5342    15.6023   -18.2107 F          1  LIG1  -0.1600
      9 F3        -20.6507    16.1519   -17.0403 F          1  LIG1  -0.1700
     10 N1        -18.5102    16.7173   -18.2000 N.4        1  LIG1  -0.5200
     11 H2        -18.9208    17.2094   -17.4208 H          1  LIG1   0.4200
     12 H3        -18.5152    15.7259   -18.0121 H          1  LIG1   0.4300
     13 C6        -17.1268    17.1721   -18.3925 C.3        1  LIG1   0.0700
     14 C7        -16.3282    16.8933   -17.1452 C.2        1  LIG1  -0.3100
     15 C8        -16.3396    15.7427   -16.4333 C.2        1  LIG1   0.1100
     16 N2        -15.4905    15.8948   -15.3919 N.pl3      1  LIG1  -0.2900
     17 C9        -15.2092    14.9349   -14.4097 C.ar       1  LIG1   0.1300
     18 C10       -14.3163    15.2268   -13.3874 C.ar       1  LIG1  -0.1300
     19 C11       -14.0411    14.2792   -12.4210 C.ar       1  LIG1  -0.0900
     20 C12       -14.6535    13.0404   -12.4714 C.ar       1  LIG1  -0.1100
     21 C13       -15.5433    12.7467   -13.4884 C.ar       1  LIG1  -0.0900
     22 C14       -15.8272    13.6925   -14.4540 C.ar       1  LIG1  -0.1100
     23 N3        -14.9411    17.1811   -15.4688 N.2        1  LIG1  -0.2600
     24 C15       -15.4396    17.7767   -16.5222 C.2        1  LIG1   0.1000
     25 C16       -15.1183    19.1758   -16.9807 C.3        1  LIG1  -0.0900
     26 H4        -20.8133    19.7926   -20.7169 H          1  LIG1   0.0800
     27 H5        -19.9076    18.5265   -21.5799 H          1  LIG1   0.0900
     28 H6        -21.4060    18.1143   -20.7124 H          1  LIG1   0.0600
     29 H7        -18.8158    19.0908   -19.4263 H          1  LIG1   0.1000
     30 H8        -20.3144    18.6785   -18.5586 H          1  LIG1   0.1200
     31 H9        -21.1153    16.3070   -20.3319 H          1  LIG1   0.1400
     32 H10       -20.2408    15.0565   -19.4153 H          1  LIG1   0.1600
     33 H11       -16.6833    16.6405   -19.2343 H          1  LIG1   0.1500
     34 H12       -17.1214    18.2431   -18.5955 H          1  LIG1   0.1300
     35 H13       -16.9225    14.8612   -16.6564 H          1  LIG1   0.1900
     36 H14       -13.8371    16.1939   -13.3480 H          1  LIG1   0.1300
     37 H15       -13.3466    14.5057   -11.6256 H          1  LIG1   0.1400
     38 H16       -14.4362    12.3006   -11.7151 H          1  LIG1   0.1400
     39 H17       -16.0201    11.7784   -13.5251 H          1  LIG1   0.1400
     40 H18       -16.5225    13.4627   -15.2479 H          1  LIG1   0.1400
     41 H19       -14.3939    19.6237   -16.3004 H          1  LIG1   0.0900
     42 H20       -14.6994    19.1415   -17.9864 H          1  LIG1   0.0800
     43 H21       -16.0292    19.7742   -16.9868 H          1  LIG1   0.0900
@<TRIPOS>BOND
     1    1    2 1
     2    1   26 1
     3    1   27 1
     4    1   28 1
     5    2    3 1
     6    2   29 1
     7    2   30 1
     8    3    4 1
     9    3    5 1
    10    3   10 1
    11    5    6 1
    12    5   31 1
    13    5   32 1
    14    6    7 1
    15    6    8 1
    16    6    9 1
    17   10   11 1
    18   10   12 1
    19   10   13 1
    20   13   14 1
    21   13   33 1
    22   13   34 1
    23   14   24 1
    24   14   15 2
    25   15   16 1
    26   15   35 1
    27   16   17 1
    28   16   23 1
    29   17   22 ar
    30   17   18 ar
    31   18   19 ar
    32   18   36 1
    33   19   20 ar
    34   19   37 1
    35   20   21 ar
    36   20   38 1
    37   21   22 ar
    38   21   39 1
    39   22   40 1
    40   23   24 2
    41   24   25 1
    42   25   41 1
    43   25   42 1
    44   25   43 1
##########                 Name:     ZINC000335929117
##########          Protonation:                 none
##########               SMILES:   FC1=CC=CC=C1[C@@]1(F)CC[N@H+](CC2=CCCOC2)C1
##########            Long Name:   NO_LONG_NAME
##########          FlexRecCode: 1
##########               Number:                13162
##########   Ligand Source File: /nfs/db/export/3D/CG/ADMO/CGADMO.xasn.db2.gz
##########                 Rank:                    1
##########               Setnum:                   18
##########             Matchnum:                    1
##########                Cloud:                    1
##########        Electrostatic:           -39.810883
##########                 Gist:             0.000000
##########        Van der Waals:           -25.541122
##########  Ligand Polar Desolv:            12.176676
########## Ligand Apolar Desolv:            -4.847383
##########      Internal Energy:             0.000000
##########      Receptor Energy:             0.000000
########## Receptor Desolvation:             0.000000
########## Receptor Hydrophobic:             0.000000
##########         Total Energy:           -58.022713
##########        Ligand Charge:             1.000000
##########            Arbitrary:    +999.9990
##########        Ligand Energy:             0.000000

@<TRIPOS>MOLECULE
 ZINC000335929117      none
   40    42     0     0     0



@<TRIPOS>ATOM
      1 F1        -13.9545    17.6936   -14.8547 F          1  LIG1  -0.1400
      2 C1        -14.2395    16.3755   -14.7735 C.ar       1  LIG1   0.1100
      3 C2        -13.5320    15.5661   -13.9013 C.ar       1  LIG1  -0.1400
      4 C3        -13.8245    14.2176   -13.8191 C.ar       1  LIG1  -0.0700
      5 C4        -14.8231    13.6773   -14.6073 C.ar       1  LIG1  -0.1200
      6 C5        -15.5305    14.4847   -15.4788 C.ar       1  LIG1  -0.0600
      7 C6        -15.2437    15.8341   -15.5585 C.ar       1  LIG1  -0.1700
      8 C7        -16.0148    16.7138   -16.5085 C.3        1  LIG1   0.1700
      9 F2        -15.5113    18.0189   -16.4903 F          1  LIG1  -0.1700
     10 C8        -15.9832    16.1297   -17.9454 C.3        1  LIG1  -0.1700
     11 C9        -17.2860    16.7117   -18.5484 C.3        1  LIG1  -0.0100
     12 N1        -18.2602    16.6884   -17.4365 N.4        1  LIG1  -0.3900
     13 H1        -18.8200    15.8508   -17.4931 H          1  LIG1   0.4300
     14 C10       -19.1283    17.8708   -17.5149 C.3        1  LIG1   0.0400
     15 C11       -20.2029    17.6375   -18.5454 C.2        1  LIG1  -0.2400
     16 C12       -19.9697    17.9846   -19.7760 C.2        1  LIG1  -0.0600
     17 C13       -20.9817    17.8013   -20.8733 C.3        1  LIG1  -0.1400
     18 C14       -22.0622    16.8173   -20.4161 C.3        1  LIG1   0.0500
     19 O1        -22.4991    17.2021   -19.1066 O.3        1  LIG1  -0.3700
     20 C15       -21.4947    17.0085   -18.1065 C.3        1  LIG1   0.0900
     21 C16       -17.5186    16.7043   -16.1623 C.3        1  LIG1  -0.0300
     22 H2        -12.7514    15.9880   -13.2855 H          1  LIG1   0.1500
     23 H3        -13.2724    13.5860   -13.1390 H          1  LIG1   0.1500
     24 H4        -15.0508    12.6235   -14.5428 H          1  LIG1   0.1400
     25 H5        -16.3104    14.0614   -16.0943 H          1  LIG1   0.1500
     26 H6        -15.1084    16.4828   -18.4913 H          1  LIG1   0.1300
     27 H7        -16.0152    15.0403   -17.9247 H          1  LIG1   0.1200
     28 H8        -17.1228    17.7344   -18.8885 H          1  LIG1   0.1400
     29 H9        -17.6347    16.0882   -19.3717 H          1  LIG1   0.1500
     30 H10       -19.5891    18.0482   -16.5432 H          1  LIG1   0.1400
     31 H11       -18.5344    18.7394   -17.7995 H          1  LIG1   0.1400
     32 H12       -19.0126    18.4216   -20.0200 H          1  LIG1   0.1200
     33 H13       -21.4410    18.7617   -21.1075 H          1  LIG1   0.1000
     34 H14       -20.4867    17.4098   -21.7619 H          1  LIG1   0.1000
     35 H15       -22.9040    16.8489   -21.1079 H          1  LIG1   0.1100
     36 H16       -21.6503    15.8086   -20.3842 H          1  LIG1   0.0600
     37 H17       -21.3473    15.9409   -17.9443 H          1  LIG1   0.0800
     38 H18       -21.8185    17.4722   -17.1748 H          1  LIG1   0.1000
     39 H19       -17.7598    15.8140   -15.5816 H          1  LIG1   0.1500
     40 H20       -17.7743    17.5997   -15.5956 H          1  LIG1   0.1500
@<TRIPOS>BOND
     1    1    2 1
     2    2    7 ar
     3    2    3 ar
     4    3    4 ar
     5    3   22 1
     6    4    5 ar
     7    4   23 1
     8    5    6 ar
     9    5   24 1
    10    6    7 ar
    11    6   25 1
    12    7    8 1
    13    8   21 1
    14    8    9 1
    15    8   10 1
    16   10   11 1
    17   10   26 1
    18   10   27 1
    19   11   12 1
    20   11   28 1
    21   11   29 1
    22   12   13 1
    23   12   14 1
    24   12   21 1
    25   14   15 1
    26   14   30 1
    27   14   31 1
    28   15   20 1
    29   15   16 2
    30   16   17 1
    31   16   32 1
    32   17   18 1
    33   17   33 1
    34   17   34 1
    35   18   19 1
    36   18   35 1
    37   18   36 1
    38   19   20 1
    39   20   37 1
    40   20   38 1
    41   21   39 1
    42   21   40 1
##########                 Name:     ZINC000565997666
##########          Protonation:                 none
##########               SMILES:   COC1=CC2=C(C=C1C[NH2+]C[C@@H](N)C1=CC=CC=C1)O[C@H](C)C2
##########            Long Name:   NO_LONG_NAME
##########          FlexRecCode: 1
##########               Number:                 4825
##########   Ligand Source File: /nfs/db/export/3D/DF/ADMO/DFADMO.xfz.db2.gz
##########                 Rank:                    1
##########               Setnum:                   33
##########             Matchnum:                    1
##########                Cloud:                    1
##########        Electrostatic:           -31.727993
##########                 Gist:             0.000000
##########        Van der Waals:           -32.487782
##########  Ligand Polar Desolv:            10.530722
########## Ligand Apolar Desolv:            -4.366477
##########      Internal Energy:             0.000000
##########      Receptor Energy:             0.000000
########## Receptor Desolvation:             0.000000
########## Receptor Hydrophobic:             0.000000
##########         Total Energy:           -58.051529
##########        Ligand Charge:             1.000000
##########            Arbitrary:    +999.9990
##########        Ligand Energy:             0.000000

@<TRIPOS>MOLECULE
 ZINC000565997666      none
   48    50     0     0     0



@<TRIPOS>ATOM
      1 C1        -14.5091    19.7686   -16.4895 C.3        1  LIG1   0.0200
      2 O1        -15.5777    18.8229   -16.5672 O.3        1  LIG1  -0.3300
      3 C2        -15.4446    17.6801   -15.8425 C.ar       1  LIG1   0.1200
      4 C3        -14.3122    17.4736   -15.0673 C.ar       1  LIG1  -0.1500
      5 C4        -14.1830    16.3147   -14.3342 C.ar       1  LIG1  -0.1000
      6 C5        -15.1774    15.3457   -14.3534 C.ar       1  LIG1   0.0800
      7 C6        -16.3093    15.5563   -15.1370 C.ar       1  LIG1  -0.0800
      8 C7        -16.4425    16.7169   -15.8698 C.ar       1  LIG1  -0.1600
      9 C8        -17.6720    16.9345   -16.7135 C.3        1  LIG1   0.0600
     10 N1        -17.4461    16.3876   -18.0581 N.4        1  LIG1  -0.5000
     11 H1        -16.6594    16.8547   -18.4834 H          1  LIG1   0.4300
     12 H2        -17.2547    15.3992   -17.9914 H          1  LIG1   0.4300
     13 C9        -18.6446    16.5998   -18.8806 C.3        1  LIG1   0.0000
     14 C10       -18.9350    18.0985   -18.9818 C.3        1  LIG1   0.1100
     15 H3        -19.1025    18.5043   -17.9842 H          1  LIG1   0.1100
     16 N2        -17.7894    18.7787   -19.6009 N.3        1  LIG1  -0.8500
     17 C11       -20.1644    18.3163   -19.8256 C.ar       1  LIG1  -0.1400
     18 C12       -20.0444    18.4769   -21.1934 C.ar       1  LIG1  -0.1100
     19 C13       -21.1722    18.6766   -21.9674 C.ar       1  LIG1  -0.1100
     20 C14       -22.4200    18.7153   -21.3738 C.ar       1  LIG1  -0.1000
     21 C15       -22.5401    18.5538   -20.0062 C.ar       1  LIG1  -0.1100
     22 C16       -21.4126    18.3498   -19.2327 C.ar       1  LIG1  -0.1000
     23 O2        -14.8589    14.2966   -13.5446 O.3        1  LIG1  -0.2900
     24 C17       -13.4438    14.3072   -13.2913 C.3        1  LIG1   0.0800
     25 H4        -12.9133    13.7165   -14.0381 H          1  LIG1   0.0900
     26 C18       -13.1414    13.7934   -11.8822 C.3        1  LIG1  -0.1500
     27 C19       -13.0840    15.8062   -13.4212 C.3        1  LIG1  -0.1200
     28 H5        -14.7419    20.6319   -17.1130 H          1  LIG1   0.0600
     29 H6        -14.3834    20.0905   -15.4557 H          1  LIG1   0.0600
     30 H7        -13.5872    19.3049   -16.8404 H          1  LIG1   0.1100
     31 H8        -13.5328    18.2207   -15.0392 H          1  LIG1   0.1400
     32 H9        -17.0885    14.8090   -15.1674 H          1  LIG1   0.1500
     33 H10       -18.5219    16.4297   -16.2541 H          1  LIG1   0.1400
     34 H11       -17.8791    18.0021   -16.7856 H          1  LIG1   0.1400
     35 H12       -18.4770    16.1940   -19.8784 H          1  LIG1   0.1300
     36 H13       -19.4946    16.0952   -18.4214 H          1  LIG1   0.1400
     37 H14       -17.2902    18.1562   -20.2187 H          1  LIG1   0.3500
     38 H15       -18.0834    19.6121   -20.0877 H          1  LIG1   0.3700
     39 H16       -19.0695    18.4467   -21.6571 H          1  LIG1   0.1200
     40 H17       -21.0784    18.8029   -23.0359 H          1  LIG1   0.1300
     41 H18       -23.3010    18.8720   -21.9785 H          1  LIG1   0.1300
     42 H19       -23.5149    18.5843   -19.5423 H          1  LIG1   0.1300
     43 H20       -21.5065    18.2235   -18.1641 H          1  LIG1   0.1300
     44 H21       -12.0649    13.8102   -11.7125 H          1  LIG1   0.0800
     45 H22       -13.6348    14.4315   -11.1490 H          1  LIG1   0.0900
     46 H23       -13.5093    12.7722   -11.7812 H          1  LIG1   0.0700
     47 H24       -12.1046    15.9331   -13.8825 H          1  LIG1   0.1000
     48 H25       -13.1231    16.3017   -12.4512 H          1  LIG1   0.1100
@<TRIPOS>BOND
     1    1    2 1
     2    1   28 1
     3    1   29 1
     4    1   30 1
     5    2    3 1
     6    3    8 ar
     7    3    4 ar
     8    4    5 ar
     9    4   31 1
    10    5   27 1
    11    5    6 ar
    12    6    7 ar
    13    6   23 1
    14    7    8 ar
    15    7   32 1
    16    8    9 1
    17    9   10 1
    18    9   33 1
    19    9   34 1
    20   10   11 1
    21   10   12 1
    22   10   13 1
    23   13   14 1
    24   13   35 1
    25   13   36 1
    26   14   15 1
    27   14   16 1
    28   14   17 1
    29   16   37 1
    30   16   38 1
    31   17   22 ar
    32   17   18 ar
    33   18   19 ar
    34   18   39 1
    35   19   20 ar
    36   19   40 1
    37   20   21 ar
    38   20   41 1
    39   21   22 ar
    40   21   42 1
    41   22   43 1
    42   23   24 1
    43   24   25 1
    44   24   26 1
    45   24   27 1
    46   26   44 1
    47   26   45 1
    48   26   46 1
    49   27   47 1
    50   27   48 1
##########                 Name:     ZINC000592808915
##########          Protonation:                 none
##########               SMILES:   O=C(C[NH+]1CCC(CCO)CC1)NC1=CC=CC(C(F)(F)F)=C1
##########            Long Name:   NO_LONG_NAME
##########          FlexRecCode: 1
##########               Number:                 9726
##########   Ligand Source File: /nfs/db/export/3D/EF/ADMO/EFADMO.xadw.db2.gz
##########                 Rank:                    1
##########               Setnum:                  420
##########             Matchnum:                    1
##########                Cloud:                    1
##########        Electrostatic:           -40.682793
##########                 Gist:             0.000000
##########        Van der Waals:           -29.917072
##########  Ligand Polar Desolv:            16.125473
########## Ligand Apolar Desolv:            -3.655551
##########      Internal Energy:             0.000000
##########      Receptor Energy:             0.000000
########## Receptor Desolvation:             0.000000
########## Receptor Hydrophobic:             0.000000
##########         Total Energy:           -58.129948
##########        Ligand Charge:             1.000000
##########            Arbitrary:    +999.9990
##########        Ligand Energy:             0.000000

@<TRIPOS>MOLECULE
 ZINC000592808915      none
   45    46     0     0     0



@<TRIPOS>ATOM
      1 O1        -16.1968    16.7442   -15.3185 O.2        1  LIG1  -0.5100
      2 C1        -16.4998    16.2674   -16.3918 C.2        1  LIG1   0.5000
      3 C2        -16.9698    17.1634   -17.5087 C.3        1  LIG1  -0.0300
      4 N1        -18.3296    16.7766   -17.9074 N.4        1  LIG1  -0.3700
      5 H1        -18.4062    15.7705   -17.9058 H          1  LIG1   0.4300
      6 C3        -18.6055    17.2846   -19.2565 C.3        1  LIG1  -0.0100
      7 C4        -19.9901    16.8158   -19.7090 C.3        1  LIG1  -0.1400
      8 C5        -21.0462    17.3475   -18.7359 C.3        1  LIG1  -0.1000
      9 C6        -22.4244    16.8173   -19.1367 C.3        1  LIG1  -0.1200
     10 C7        -22.9753    17.6526   -20.2941 C.3        1  LIG1   0.0700
     11 O2        -23.0905    19.0167   -19.8845 O.3        1  LIG1  -0.5700
     12 C8        -20.7068    16.8727   -17.3201 C.3        1  LIG1  -0.1400
     13 C9        -19.2958    17.3408   -16.9571 C.3        1  LIG1  -0.0200
     14 N2        -16.4106    14.9369   -16.5875 N.am       1  LIG1  -0.6400
     15 C10       -15.9742    14.1049   -15.5505 C.ar       1  LIG1   0.1200
     16 C11       -16.4279    12.7950   -15.4717 C.ar       1  LIG1  -0.1000
     17 C12       -15.9948    11.9760   -14.4473 C.ar       1  LIG1  -0.1000
     18 C13       -15.1108    12.4595   -13.5005 C.ar       1  LIG1  -0.0700
     19 C14       -14.6569    13.7637   -13.5762 C.ar       1  LIG1  -0.1600
     20 C15       -13.6933    14.2866   -12.5421 C.3        1  LIG1   0.5100
     21 F1        -13.4085    13.2765   -11.6171 F          1  LIG1  -0.1700
     22 F2        -12.5102    14.6911   -13.1696 F          1  LIG1  -0.1700
     23 F3        -14.2666    15.3774   -11.8799 F          1  LIG1  -0.1700
     24 C16       -15.0816    14.5858   -14.6012 C.ar       1  LIG1  -0.0700
     25 H2        -16.9719    18.1987   -17.1675 H          1  LIG1   0.1600
     26 H3        -16.2987    17.0633   -18.3616 H          1  LIG1   0.1700
     27 H4        -18.5765    18.3741   -19.2470 H          1  LIG1   0.1300
     28 H5        -17.8512    16.9079   -19.9474 H          1  LIG1   0.1300
     29 H6        -20.1937    17.1955   -20.7102 H          1  LIG1   0.1200
     30 H7        -20.0202    15.7263   -19.7191 H          1  LIG1   0.0900
     31 H8        -21.0526    18.4371   -18.7645 H          1  LIG1   0.0900
     32 H9        -22.3365    15.7767   -19.4491 H          1  LIG1   0.0800
     33 H10       -23.1015    16.8851   -18.2852 H          1  LIG1   0.0800
     34 H11       -22.2982    17.5848   -21.1456 H          1  LIG1   0.0500
     35 H12       -23.9571    17.2749   -20.5796 H          1  LIG1   0.0500
     36 H13       -22.2531    19.4187   -19.6157 H          1  LIG1   0.3900
     37 H14       -21.4227    17.2931   -16.6139 H          1  LIG1   0.1100
     38 H15       -20.7516    15.7844   -17.2806 H          1  LIG1   0.0900
     39 H16       -19.0499    17.0051   -15.9498 H          1  LIG1   0.1500
     40 H17       -19.2531    18.4293   -16.9970 H          1  LIG1   0.1300
     41 H18       -16.6491    14.5561   -17.4471 H          1  LIG1   0.4200
     42 H19       -17.1191    12.4170   -16.2105 H          1  LIG1   0.1400
     43 H20       -16.3475    10.9571   -14.3854 H          1  LIG1   0.1500
     44 H21       -14.7742    11.8174   -12.7000 H          1  LIG1   0.1500
     45 H22       -14.7268    15.6041   -14.6598 H          1  LIG1   0.1500
@<TRIPOS>BOND
     1    1    2 2
     2    2    3 1
     3    2   14 am
     4    3    4 1
     5    3   25 1
     6    3   26 1
     7    4    5 1
     8    4   13 1
     9    4    6 1
    10    6    7 1
    11    6   27 1
    12    6   28 1
    13    7    8 1
    14    7   29 1
    15    7   30 1
    16    8    9 1
    17    8   12 1
    18    8   31 1
    19    9   10 1
    20    9   32 1
    21    9   33 1
    22   10   11 1
    23   10   34 1
    24   10   35 1
    25   11   36 1
    26   12   13 1
    27   12   37 1
    28   12   38 1
    29   13   39 1
    30   13   40 1
    31   14   15 1
    32   14   41 1
    33   15   24 ar
    34   15   16 ar
    35   16   17 ar
    36   16   42 1
    37   17   18 ar
    38   17   43 1
    39   18   19 ar
    40   18   44 1
    41   19   20 1
    42   19   24 ar
    43   20   21 1
    44   20   22 1
    45   20   23 1
    46   24   45 1
##########                 Name:     ZINC000301777234
##########          Protonation:                 none
##########               SMILES:   CCC1=CC=C([C@@H](CNC2=C3C=CC(N)=NC3=NC=N2)[NH+](C)C)C=C1
##########            Long Name:   NO_LONG_NAME
##########          FlexRecCode: 1
##########               Number:                 9638
##########   Ligand Source File: /nfs/db/export/3D/EF/ADRO/EFADRO.xaru.db2.gz
##########                 Rank:                    1
##########               Setnum:                   14
##########             Matchnum:                    1
##########                Cloud:                    1
##########        Electrostatic:           -42.212334
##########                 Gist:             0.000000
##########        Van der Waals:           -29.695080
##########  Ligand Polar Desolv:            19.465168
########## Ligand Apolar Desolv:            -5.528520
##########      Internal Energy:             0.000000
##########      Receptor Energy:             0.000000
########## Receptor Desolvation:             0.000000
########## Receptor Hydrophobic:             0.000000
##########         Total Energy:           -57.970764
##########        Ligand Charge:             1.000000
##########            Arbitrary:    +999.9990
##########        Ligand Energy:             0.000000

@<TRIPOS>MOLECULE
 ZINC000301777234      none
   50    52     0     0     0



@<TRIPOS>ATOM
      1 C1        -12.3100    14.0554   -13.5237 C.3        1  LIG1  -0.1500
      2 C2        -13.6697    14.5772   -13.0549 C.3        1  LIG1  -0.1000
      3 C3        -14.4357    15.1151   -14.2360 C.ar       1  LIG1  -0.0400
      4 C4        -15.2653    14.2798   -14.9604 C.ar       1  LIG1  -0.1000
      5 C5        -15.9680    14.7733   -16.0437 C.ar       1  LIG1  -0.0900
      6 C6        -15.8414    16.1023   -16.4023 C.ar       1  LIG1  -0.1500
      7 C7        -16.6071    16.6403   -17.5836 C.3        1  LIG1   0.0600
      8 H1        -16.3815    17.6991   -17.7111 H          1  LIG1   0.1500
      9 C8        -16.2005    15.8766   -18.8455 C.3        1  LIG1   0.1200
     10 N1        -16.5485    16.6677   -20.0284 N.pl3      1  LIG1  -0.7000
     11 C9        -16.0004    17.9198   -20.2059 C.ar       1  LIG1   0.4900
     12 C10       -16.6069    18.8623   -21.0660 C.ar       1  LIG1  -0.2900
     13 C11       -17.7846    18.5760   -21.7748 C.ar       1  LIG1   0.0100
     14 C12       -18.3015    19.5468   -22.5834 C.ar       1  LIG1  -0.2300
     15 C13       -17.6550    20.7854   -22.6848 C.ar       1  LIG1   0.4700
     16 N2        -18.1899    21.7613   -23.5086 N.pl3      1  LIG1  -0.8300
     17 N3        -16.5481    21.0448   -22.0135 N.ar       1  LIG1  -0.5500
     18 C14       -15.9992    20.1336   -21.2097 C.ar       1  LIG1   0.4300
     19 N4        -14.8756    20.3856   -20.5224 N.ar       1  LIG1  -0.5400
     20 C15       -14.3542    19.4719   -19.7368 C.ar       1  LIG1   0.3800
     21 N5        -14.8905    18.2753   -19.5686 N.ar       1  LIG1  -0.6100
     22 N6        -18.0477    16.4711   -17.3517 N.4        1  LIG1  -0.3800
     23 H2        -18.2565    15.4910   -17.2335 H          1  LIG1   0.4300
     24 C16       -18.4381    17.2042   -16.1399 C.3        1  LIG1  -0.0500
     25 C17       -18.7940    16.9955   -18.5031 C.3        1  LIG1  -0.0500
     26 C18       -15.0128    16.9380   -15.6771 C.ar       1  LIG1  -0.1100
     27 C19       -14.3131    16.4453   -14.5914 C.ar       1  LIG1  -0.1000
     28 H3        -11.7560    13.6663   -12.6695 H          1  LIG1   0.0600
     29 H4        -12.4582    13.2595   -14.2537 H          1  LIG1   0.0700
     30 H5        -11.7472    14.8685   -13.9821 H          1  LIG1   0.0600
     31 H6        -14.2325    13.7641   -12.5966 H          1  LIG1   0.0800
     32 H7        -13.5214    15.3730   -12.3250 H          1  LIG1   0.0800
     33 H8        -15.3642    13.2415   -14.6802 H          1  LIG1   0.1400
     34 H9        -16.6156    14.1205   -16.6101 H          1  LIG1   0.1300
     35 H10       -15.1253    15.6978   -18.8315 H          1  LIG1   0.0900
     36 H11       -16.7271    14.9228   -18.8784 H          1  LIG1   0.1000
     37 H12       -17.1647    16.3102   -20.6868 H          1  LIG1   0.4100
     38 H13       -18.2678    17.6144   -21.6833 H          1  LIG1   0.1300
     39 H14       -19.2058    19.3605   -23.1435 H          1  LIG1   0.1500
     40 H15       -19.0029    21.5832   -24.0069 H          1  LIG1   0.4200
     41 H16       -17.7518    22.6231   -23.5875 H          1  LIG1   0.4100
     42 H17       -13.4484    19.7108   -19.1993 H          1  LIG1   0.2000
     43 H18       -19.5070    17.0786   -15.9679 H          1  LIG1   0.1200
     44 H19       -17.8843    16.8151   -15.2856 H          1  LIG1   0.1300
     45 H20       -18.2125    18.2630   -16.2674 H          1  LIG1   0.1300
     46 H21       -19.8630    16.8699   -18.3309 H          1  LIG1   0.1300
     47 H22       -18.5685    18.0543   -18.6306 H          1  LIG1   0.1300
     48 H23       -18.5044    16.4515   -19.4022 H          1  LIG1   0.1300
     49 H24       -14.9143    17.9765   -15.9570 H          1  LIG1   0.1200
     50 H25       -13.6658    17.0983   -14.0247 H          1  LIG1   0.1400
@<TRIPOS>BOND
     1    1    2 1
     2    1   28 1
     3    1   29 1
     4    1   30 1
     5    2    3 1
     6    2   31 1
     7    2   32 1
     8    3   27 ar
     9    3    4 ar
    10    4    5 ar
    11    4   33 1
    12    5    6 ar
    13    5   34 1
    14    6    7 1
    15    6   26 ar
    16    7    8 1
    17    7    9 1
    18    7   22 1
    19    9   10 1
    20    9   35 1
    21    9   36 1
    22   10   11 1
    23   10   37 1
    24   11   21 ar
    25   11   12 ar
    26   12   18 ar
    27   12   13 ar
    28   13   14 ar
    29   13   38 1
    30   14   15 ar
    31   14   39 1
    32   15   16 1
    33   15   17 ar
    34   16   40 1
    35   16   41 1
    36   17   18 ar
    37   18   19 ar
    38   19   20 ar
    39   20   21 ar
    40   20   42 1
    41   22   23 1
    42   22   24 1
    43   22   25 1
    44   24   43 1
    45   24   44 1
    46   24   45 1
    47   25   46 1
    48   25   47 1
    49   25   48 1
    50   26   27 ar
    51   26   49 1
    52   27   50 1
##########                 Name:     ZINC000129441241
##########          Protonation:                 none
##########               SMILES:   CC1CC[NH+](CC(=O)NC2=CC=CC(C3=CNN=C3)=C2)CC1
##########            Long Name:   NO_LONG_NAME
##########          FlexRecCode: 1
##########               Number:                 3211
##########   Ligand Source File: /nfs/db/export/3D/CF/ADRO/CFADRO.xbnp.db2.gz
##########                 Rank:                    1
##########               Setnum:                   66
##########             Matchnum:                    1
##########                Cloud:                    1
##########        Electrostatic:           -34.084846
##########                 Gist:             0.000000
##########        Van der Waals:           -32.625610
##########  Ligand Polar Desolv:            12.870135
########## Ligand Apolar Desolv:            -4.364500
##########      Internal Energy:             0.000000
##########      Receptor Energy:             0.000000
########## Receptor Desolvation:             0.000000
########## Receptor Hydrophobic:             0.000000
##########         Total Energy:           -58.204819
##########        Ligand Charge:             1.000000
##########            Arbitrary:    +999.9990
##########        Ligand Energy:             0.000000

@<TRIPOS>MOLECULE
 ZINC000129441241      none
   45    47     0     0     0



@<TRIPOS>ATOM
      1 C1        -22.5708    16.1242   -19.0513 C.3        1  LIG1  -0.1500
      2 C2        -21.3204    17.0048   -19.0087 C.3        1  LIG1  -0.1100
      3 C3        -20.7855    17.0659   -17.5751 C.3        1  LIG1  -0.1400
      4 C4        -19.4914    17.8822   -17.5537 C.3        1  LIG1  -0.0100
      5 N1        -18.4937    17.2472   -18.4230 N.4        1  LIG1  -0.3700
      6 H1        -18.3433    16.2961   -18.1219 H          1  LIG1   0.4300
      7 C5        -17.2297    17.9914   -18.3401 C.3        1  LIG1  -0.0300
      8 C6        -16.4918    17.5898   -17.0890 C.2        1  LIG1   0.5000
      9 O1        -16.2267    18.4223   -16.2478 O.2        1  LIG1  -0.5100
     10 N2        -16.1263    16.3057   -16.9049 N.am       1  LIG1  -0.6400
     11 C7        -15.4411    15.9329   -15.7432 C.ar       1  LIG1   0.1300
     12 C8        -14.6126    16.8453   -15.1020 C.ar       1  LIG1  -0.1300
     13 C9        -13.9338    16.4803   -13.9546 C.ar       1  LIG1  -0.0900
     14 C10       -14.0753    15.2073   -13.4397 C.ar       1  LIG1  -0.1200
     15 C11       -14.9042    14.2856   -14.0765 C.ar       1  LIG1   0.0400
     16 C12       -15.0570    12.9159   -13.5240 C.2        1  LIG1  -0.2200
     17 C13       -15.3078    11.7815   -14.2391 C.2        1  LIG1   0.0900
     18 N3        -15.3737    10.7555   -13.3668 N.pl3      1  LIG1  -0.4700
     19 N4        -15.1591    11.2617   -12.0791 N.2        1  LIG1  -0.2900
     20 C14       -14.9632    12.5506   -12.1669 C.2        1  LIG1   0.0700
     21 C15       -15.5930    14.6541   -15.2283 C.ar       1  LIG1  -0.1400
     22 C16       -18.9694    17.2499   -19.8117 C.3        1  LIG1  -0.0100
     23 C17       -20.2433    16.4093   -19.9201 C.3        1  LIG1  -0.1400
     24 H2        -23.3366    16.5492   -18.4023 H          1  LIG1   0.0600
     25 H3        -22.9466    16.0759   -20.0733 H          1  LIG1   0.0700
     26 H4        -22.3201    15.1203   -18.7086 H          1  LIG1   0.0700
     27 H5        -21.5706    18.0099   -19.3488 H          1  LIG1   0.0900
     28 H6        -21.5255    17.5399   -16.9304 H          1  LIG1   0.1100
     29 H7        -20.5846    16.0558   -17.2183 H          1  LIG1   0.0900
     30 H8        -19.6935    18.8921   -17.9103 H          1  LIG1   0.1300
     31 H9        -19.1080    17.9278   -16.5343 H          1  LIG1   0.1400
     32 H10       -16.6165    17.7642   -19.2122 H          1  LIG1   0.1600
     33 H11       -17.4387    19.0606   -18.3114 H          1  LIG1   0.1600
     34 H12       -16.3383    15.6399   -17.5777 H          1  LIG1   0.4200
     35 H13       -14.4983    17.8423   -15.5012 H          1  LIG1   0.1300
     36 H14       -13.2906    17.1929   -13.4598 H          1  LIG1   0.1300
     37 H15       -13.5430    14.9254   -12.5432 H          1  LIG1   0.1300
     38 H16       -15.4313    11.7169   -15.3101 H          1  LIG1   0.1800
     39 H17       -15.5412     9.8271   -13.5924 H          1  LIG1   0.4500
     40 H18       -14.7708    13.2204   -11.3418 H          1  LIG1   0.1900
     41 H19       -16.2368    13.9433   -15.7250 H          1  LIG1   0.1300
     42 H20       -19.1825    18.2734   -20.1202 H          1  LIG1   0.1300
     43 H21       -18.2004    16.8287   -20.4594 H          1  LIG1   0.1300
     44 H22       -20.0312    15.3856   -19.6118 H          1  LIG1   0.0900
     45 H23       -20.5958    16.4141   -20.9515 H          1  LIG1   0.1100
@<TRIPOS>BOND
     1    1    2 1
     2    1   24 1
     3    1   25 1
     4    1   26 1
     5    2   23 1
     6    2    3 1
     7    2   27 1
     8    3    4 1
     9    3   28 1
    10    3   29 1
    11    4    5 1
    12    4   30 1
    13    4   31 1
    14    5    6 1
    15    5    7 1
    16    5   22 1
    17    7    8 1
    18    7   32 1
    19    7   33 1
    20    8    9 2
    21    8   10 am
    22   10   11 1
    23   10   34 1
    24   11   21 ar
    25   11   12 ar
    26   12   13 ar
    27   12   35 1
    28   13   14 ar
    29   13   36 1
    30   14   15 ar
    31   14   37 1
    32   15   16 1
    33   15   21 ar
    34   16   20 1
    35   16   17 2
    36   17   18 1
    37   17   38 1
    38   18   19 1
    39   18   39 1
    40   19   20 2
    41   20   40 1
    42   21   41 1
    43   22   23 1
    44   22   42 1
    45   22   43 1
    46   23   44 1
    47   23   45 1
##########                 Name:     ZINC000412053993
##########          Protonation:                 none
##########               SMILES:   COC(=O)C1=CC(F)=CC=C1C[N@@H+]1CCC[C@H](N2CCCC2=O)CC1
##########            Long Name:   NO_LONG_NAME
##########          FlexRecCode: 1
##########               Number:                10201
##########   Ligand Source File: /nfs/db/export/3D/EF/ADMO/EFADMO.xbfj.db2.gz
##########                 Rank:                    1
##########               Setnum:                   81
##########             Matchnum:                    1
##########                Cloud:                    1
##########        Electrostatic:           -32.328888
##########                 Gist:             0.000000
##########        Van der Waals:           -31.498053
##########  Ligand Polar Desolv:            11.510075
########## Ligand Apolar Desolv:            -5.834414
##########      Internal Energy:             0.000000
##########      Receptor Energy:             0.000000
########## Receptor Desolvation:             0.000000
########## Receptor Hydrophobic:             0.000000
##########         Total Energy:           -58.151283
##########        Ligand Charge:             1.000000
##########            Arbitrary:    +999.9990
##########        Ligand Energy:             0.000000

@<TRIPOS>MOLECULE
 ZINC000412053993      none
   51    53     0     0     0



@<TRIPOS>ATOM
      1 C1        -19.1551    21.5330   -22.4336 C.3        1  LIG1   0.0300
      2 O1        -19.8920    20.5947   -21.6060 O.3        1  LIG1  -0.3400
      3 C2        -19.7136    19.2839   -21.8603 C.2        1  LIG1   0.5100
      4 O2        -18.9631    18.9343   -22.7491 O.2        1  LIG1  -0.5200
      5 C3        -20.4308    18.2716   -21.0583 C.ar       1  LIG1  -0.0900
      6 C4        -21.8263    18.2509   -21.0413 C.ar       1  LIG1  -0.0900
      7 C5        -22.4905    17.3012   -20.2886 C.ar       1  LIG1   0.1300
      8 F1        -23.8412    17.2789   -20.2702 F          1  LIG1  -0.1100
      9 C6        -21.7732    16.3714   -19.5531 C.ar       1  LIG1  -0.1100
     10 C7        -20.3899    16.3884   -19.5666 C.ar       1  LIG1  -0.0700
     11 C8        -19.7153    17.3276   -20.3184 C.ar       1  LIG1  -0.1100
     12 C9        -18.2085    17.3433   -20.3314 C.3        1  LIG1   0.0400
     13 N1        -17.7052    17.1822   -18.9606 N.4        1  LIG1  -0.3700
     14 H1        -18.0264    16.3048   -18.5793 H          1  LIG1   0.4200
     15 C10       -18.1792    18.2955   -18.1202 C.3        1  LIG1  -0.0100
     16 C11       -18.2470    17.9707   -16.6986 C.3        1  LIG1  -0.1500
     17 C12       -16.8467    17.6213   -16.1393 C.3        1  LIG1  -0.1500
     18 C13       -16.4595    16.2405   -16.6003 C.3        1  LIG1   0.1500
     19 H2        -17.3650    15.6471   -16.7268 H          1  LIG1   0.0800
     20 N2        -15.6294    15.6156   -15.5677 N.am       1  LIG1  -0.6200
     21 C14       -15.9727    14.3706   -14.8705 C.3        1  LIG1   0.1000
     22 C15       -14.6559    13.8815   -14.2276 C.3        1  LIG1  -0.1300
     23 C16       -13.8692    15.2040   -14.0755 C.3        1  LIG1  -0.1600
     24 C17       -14.4527    16.1056   -15.1410 C.2        1  LIG1   0.5200
     25 O3        -13.9374    17.1260   -15.5460 O.2        1  LIG1  -0.5200
     26 C18       -15.6773    16.2387   -17.9284 C.3        1  LIG1  -0.1600
     27 C19       -16.2606    17.2163   -18.9619 C.3        1  LIG1  -0.0100
     28 H3        -19.3892    22.5517   -22.1246 H          1  LIG1   0.0700
     29 H4        -18.0857    21.3555   -22.3201 H          1  LIG1   0.1200
     30 H5        -19.4375    21.3961   -23.4775 H          1  LIG1   0.0700
     31 H6        -22.3856    18.9756   -21.6145 H          1  LIG1   0.1700
     32 H7        -22.2963    15.6306   -18.9666 H          1  LIG1   0.1600
     33 H8        -19.8368    15.6614   -18.9906 H          1  LIG1   0.1600
     34 H9        -17.8419    16.5252   -20.9515 H          1  LIG1   0.1600
     35 H10       -17.8584    18.2923   -20.7376 H          1  LIG1   0.1400
     36 H11       -17.5061    19.1426   -18.2523 H          1  LIG1   0.1300
     37 H12       -19.1733    18.5884   -18.4584 H          1  LIG1   0.1300
     38 H13       -18.6459    18.8271   -16.1547 H          1  LIG1   0.1200
     39 H14       -18.9112    17.1181   -16.5578 H          1  LIG1   0.0800
     40 H15       -16.1178    18.3448   -16.5042 H          1  LIG1   0.0900
     41 H16       -16.8729    17.6474   -15.0499 H          1  LIG1   0.1000
     42 H17       -16.7197    14.5631   -14.1003 H          1  LIG1   0.0800
     43 H18       -16.3435    13.6308   -15.5800 H          1  LIG1   0.0800
     44 H19       -14.8424    13.4245   -13.2558 H          1  LIG1   0.1000
     45 H20       -14.1326    13.1902   -14.8881 H          1  LIG1   0.0900
     46 H21       -14.0250    15.6286   -13.0837 H          1  LIG1   0.1100
     47 H22       -12.8073    15.0395   -14.2585 H          1  LIG1   0.1100
     48 H23       -14.6420    16.5145   -17.7274 H          1  LIG1   0.1200
     49 H24       -15.6966    15.2326   -18.3468 H          1  LIG1   0.0900
     50 H25       -15.8972    16.9464   -19.9534 H          1  LIG1   0.1400
     51 H26       -15.9289    18.2271   -18.7242 H          1  LIG1   0.1300
@<TRIPOS>BOND
     1    1    2 1
     2    1   28 1
     3    1   29 1
     4    1   30 1
     5    2    3 1
     6    3    4 2
     7    3    5 1
     8    5   11 ar
     9    5    6 ar
    10    6    7 ar
    11    6   31 1
    12    7    8 1
    13    7    9 ar
    14    9   10 ar
    15    9   32 1
    16   10   11 ar
    17   10   33 1
    18   11   12 1
    19   12   13 1
    20   12   34 1
    21   12   35 1
    22   13   14 1
    23   13   27 1
    24   13   15 1
    25   15   16 1
    26   15   36 1
    27   15   37 1
    28   16   17 1
    29   16   38 1
    30   16   39 1
    31   17   18 1
    32   17   40 1
    33   17   41 1
    34   18   19 1
    35   18   20 1
    36   18   26 1
    37   20   24 am
    38   20   21 1
    39   21   22 1
    40   21   42 1
    41   21   43 1
    42   22   23 1
    43   22   44 1
    44   22   45 1
    45   23   24 1
    46   23   46 1
    47   23   47 1
    48   24   25 2
    49   26   27 1
    50   26   48 1
    51   26   49 1
    52   27   50 1
    53   27   51 1
##########                 Name:     ZINC000287265167
##########          Protonation:                 none
##########               SMILES:   O[C@H](C[NH+]1CC(COC2=CC=CC=C2)C1)C1=CC=C(F)C=C1
##########            Long Name:   NO_LONG_NAME
##########          FlexRecCode: 1
##########               Number:                 3570
##########   Ligand Source File: /nfs/db/export/3D/DF/ADRO/DFADRO.xawm.db2.gz
##########                 Rank:                    1
##########               Setnum:                  582
##########             Matchnum:                    1
##########                Cloud:                    1
##########        Electrostatic:           -40.506477
##########                 Gist:             0.000000
##########        Van der Waals:           -30.078951
##########  Ligand Polar Desolv:            17.349434
########## Ligand Apolar Desolv:            -4.951722
##########      Internal Energy:             0.000000
##########      Receptor Energy:             0.000000
########## Receptor Desolvation:             0.000000
########## Receptor Hydrophobic:             0.000000
##########         Total Energy:           -58.187714
##########        Ligand Charge:             1.000000
##########            Arbitrary:    +999.9990
##########        Ligand Energy:             0.000000

@<TRIPOS>MOLECULE
 ZINC000287265167      none
   43    45     0     0     0



@<TRIPOS>ATOM
      1 O1        -17.1384    17.4013   -15.7351 O.3        1  LIG1  -0.5500
      2 C1        -15.8539    16.9021   -16.1137 C.3        1  LIG1   0.1400
      3 H1        -15.0875    17.6281   -15.8421 H          1  LIG1   0.1300
      4 C2        -15.8228    16.6689   -17.6254 C.3        1  LIG1  -0.0400
      5 N1        -17.1042    16.0967   -18.0592 N.4        1  LIG1  -0.4100
      6 H2        -17.4670    15.4106   -17.4143 H          1  LIG1   0.4400
      7 C3        -18.0970    17.1135   -18.4535 C.3        1  LIG1   0.0000
      8 C4        -18.5339    16.1688   -19.5820 C.3        1  LIG1  -0.1200
      9 C5        -18.8330    16.8724   -20.9073 C.3        1  LIG1   0.0700
     10 O2        -19.5215    18.0981   -20.6512 O.3        1  LIG1  -0.3100
     11 C6        -20.8789    18.0463   -20.6099 C.ar       1  LIG1   0.1200
     12 C7        -21.6283    19.1499   -20.9909 C.ar       1  LIG1  -0.2100
     13 C8        -23.0080    19.0945   -20.9484 C.ar       1  LIG1  -0.0800
     14 C9        -23.6421    17.9407   -20.5262 C.ar       1  LIG1  -0.1500
     15 C10       -22.8975    16.8396   -20.1454 C.ar       1  LIG1  -0.0800
     16 C11       -21.5176    16.8879   -20.1921 C.ar       1  LIG1  -0.1500
     17 C12       -17.0974    15.6381   -19.4609 C.3        1  LIG1   0.0000
     18 C13       -15.5898    15.6019   -15.3991 C.ar       1  LIG1  -0.1600
     19 C14       -14.2943    15.2411   -15.0780 C.ar       1  LIG1  -0.0800
     20 C15       -14.0507    14.0489   -14.4228 C.ar       1  LIG1  -0.1500
     21 C16       -15.1049    13.2160   -14.0874 C.ar       1  LIG1   0.1200
     22 F1        -14.8680    12.0506   -13.4464 F          1  LIG1  -0.1300
     23 C17       -16.4019    13.5788   -14.4090 C.ar       1  LIG1  -0.1500
     24 C18       -16.6432    14.7736   -15.0600 C.ar       1  LIG1  -0.0700
     25 H3        -17.8700    16.8057   -15.9471 H          1  LIG1   0.3900
     26 H4        -15.6571    17.6175   -18.1361 H          1  LIG1   0.1400
     27 H5        -15.0153    15.9788   -17.8700 H          1  LIG1   0.1400
     28 H6        -18.8698    17.2798   -17.7029 H          1  LIG1   0.1500
     29 H7        -17.6502    18.0406   -18.8120 H          1  LIG1   0.1500
     30 H8        -19.3025    15.4525   -19.2921 H          1  LIG1   0.1500
     31 H9        -17.8978    17.0827   -21.4263 H          1  LIG1   0.0900
     32 H10       -19.4561    16.2285   -21.5281 H          1  LIG1   0.0800
     33 H11       -21.1335    20.0516   -21.3202 H          1  LIG1   0.1200
     34 H12       -23.5918    19.9534   -21.2450 H          1  LIG1   0.1300
     35 H13       -24.7208    17.8995   -20.4934 H          1  LIG1   0.1300
     36 H14       -23.3951    15.9396   -19.8157 H          1  LIG1   0.1400
     37 H15       -20.9364    16.0275   -19.8945 H          1  LIG1   0.1300
     38 H16       -16.3830    16.1713   -20.0881 H          1  LIG1   0.1500
     39 H17       -17.0242    14.5555   -19.5644 H          1  LIG1   0.1400
     40 H18       -13.4724    15.8909   -15.3399 H          1  LIG1   0.1300
     41 H19       -13.0388    13.7669   -14.1728 H          1  LIG1   0.1500
     42 H20       -17.2247    12.9297   -14.1482 H          1  LIG1   0.1500
     43 H21       -17.6550    15.0569   -15.3107 H          1  LIG1   0.1400
@<TRIPOS>BOND
     1    1    2 1
     2    1   25 1
     3    2    3 1
     4    2    4 1
     5    2   18 1
     6    4    5 1
     7    4   26 1
     8    4   27 1
     9    5    6 1
    10    5   17 1
    11    5    7 1
    12    7    8 1
    13    7   28 1
    14    7   29 1
    15    8    9 1
    16    8   17 1
    17    8   30 1
    18    9   10 1
    19    9   31 1
    20    9   32 1
    21   10   11 1
    22   11   16 ar
    23   11   12 ar
    24   12   13 ar
    25   12   33 1
    26   13   14 ar
    27   13   34 1
    28   14   15 ar
    29   14   35 1
    30   15   16 ar
    31   15   36 1
    32   16   37 1
    33   17   38 1
    34   17   39 1
    35   18   24 ar
    36   18   19 ar
    37   19   20 ar
    38   19   40 1
    39   20   21 ar
    40   20   41 1
    41   21   22 1
    42   21   23 ar
    43   23   24 ar
    44   23   42 1
    45   24   43 1
##########                 Name:     ZINC000031772640
##########          Protonation:                 none
##########               SMILES:   C[N@H+](CC1=CC=CC=C1)C[C@H](O)C1=CC=CC(I)=C1
##########            Long Name:   NO_LONG_NAME
##########          FlexRecCode: 1
##########               Number:                16853
##########   Ligand Source File: /nfs/db/export/3D/FG/ABMO/FGABMO.xae.db2.gz
##########                 Rank:                    1
##########               Setnum:                  140
##########             Matchnum:                    1
##########                Cloud:                    1
##########        Electrostatic:           -32.505909
##########                 Gist:             0.000000
##########        Van der Waals:           -31.786766
##########  Ligand Polar Desolv:            11.776636
########## Ligand Apolar Desolv:            -5.633295
##########      Internal Energy:             0.000000
##########      Receptor Energy:             0.000000
########## Receptor Desolvation:             0.000000
########## Receptor Hydrophobic:             0.000000
##########         Total Energy:           -58.149338
##########        Ligand Charge:             1.000000
##########            Arbitrary:    +999.9990
##########        Ligand Energy:             0.000000

@<TRIPOS>MOLECULE
 ZINC000031772640      none
   38    39     0     0     0



@<TRIPOS>ATOM
      1 C1        -17.3335    15.9442   -19.7484 C.3        1  LIG1  -0.0600
      2 N1        -17.6326    16.7254   -18.5407 N.4        1  LIG1  -0.3800
      3 H1        -17.9472    16.1062   -17.8089 H          1  LIG1   0.4300
      4 C2        -18.6856    17.7051   -18.8396 C.3        1  LIG1   0.0400
      5 C3        -20.0291    17.0232   -18.8105 C.ar       1  LIG1  -0.1600
      6 C4        -20.5422    16.4576   -19.9628 C.ar       1  LIG1  -0.1000
      7 C5        -21.7747    15.8321   -19.9361 C.ar       1  LIG1  -0.1100
      8 C6        -22.4938    15.7718   -18.7570 C.ar       1  LIG1  -0.0800
      9 C7        -21.9803    16.3365   -17.6046 C.ar       1  LIG1  -0.1100
     10 C8        -20.7459    16.9584   -17.6303 C.ar       1  LIG1  -0.0900
     11 C9        -16.4205    17.4284   -18.0998 C.3        1  LIG1  -0.0400
     12 C10       -16.5653    17.8208   -16.6281 C.3        1  LIG1   0.1400
     13 H2        -17.5836    18.1618   -16.4416 H          1  LIG1   0.1300
     14 O1        -15.6474    18.8727   -16.3229 O.3        1  LIG1  -0.5500
     15 C11       -16.2681    16.6266   -15.7582 C.ar       1  LIG1  -0.1400
     16 C12       -17.2876    15.7689   -15.3904 C.ar       1  LIG1  -0.0900
     17 C13       -17.0152    14.6732   -14.5922 C.ar       1  LIG1  -0.1000
     18 C14       -15.7235    14.4354   -14.1619 C.ar       1  LIG1  -0.0700
     19 C15       -14.7031    15.2935   -14.5304 C.ar       1  LIG1  -0.1000
     20 I1        -12.7450    14.9334   -13.8784 I          1  LIG1  -0.0200
     21 C16       -14.9749    16.3862   -15.3328 C.ar       1  LIG1  -0.0700
     22 H3        -16.9937    16.6131   -20.5390 H          1  LIG1   0.1300
     23 H4        -16.5521    15.2172   -19.5266 H          1  LIG1   0.1300
     24 H5        -18.2329    15.4224   -20.0756 H          1  LIG1   0.1200
     25 H6        -18.6651    18.4995   -18.0936 H          1  LIG1   0.1400
     26 H7        -18.5156    18.1309   -19.8285 H          1  LIG1   0.1400
     27 H8        -19.9804    16.5048   -20.8840 H          1  LIG1   0.1300
     28 H9        -22.1759    15.3908   -20.8365 H          1  LIG1   0.1400
     29 H10       -23.4570    15.2837   -18.7364 H          1  LIG1   0.1400
     30 H11       -22.5422    16.2897   -16.6835 H          1  LIG1   0.1400
     31 H12       -20.3447    17.3996   -16.7300 H          1  LIG1   0.1300
     32 H13       -15.5573    16.7734   -18.2179 H          1  LIG1   0.1400
     33 H14       -16.2810    18.3255   -18.7030 H          1  LIG1   0.1400
     34 H15       -14.7200    18.6392   -16.4661 H          1  LIG1   0.3900
     35 H16       -18.2970    15.9546   -15.7260 H          1  LIG1   0.1300
     36 H17       -17.8121    14.0033   -14.3047 H          1  LIG1   0.1400
     37 H18       -15.5110    13.5798   -13.5380 H          1  LIG1   0.1400
     38 H19       -14.1782    17.0561   -15.6210 H          1  LIG1   0.1300
@<TRIPOS>BOND
     1    1    2 1
     2    1   22 1
     3    1   23 1
     4    1   24 1
     5    2    3 1
     6    2    4 1
     7    2   11 1
     8    4    5 1
     9    4   25 1
    10    4   26 1
    11    5   10 ar
    12    5    6 ar
    13    6    7 ar
    14    6   27 1
    15    7    8 ar
    16    7   28 1
    17    8    9 ar
    18    8   29 1
    19    9   10 ar
    20    9   30 1
    21   10   31 1
    22   11   12 1
    23   11   32 1
    24   11   33 1
    25   12   13 1
    26   12   14 1
    27   12   15 1
    28   14   34 1
    29   15   21 ar
    30   15   16 ar
    31   16   17 ar
    32   16   35 1
    33   17   18 ar
    34   17   36 1
    35   18   19 ar
    36   18   37 1
    37   19   20 1
    38   19   21 ar
    39   21   38 1
##########                 Name:     ZINC000338089150
##########          Protonation:                 none
##########               SMILES:   CC[N@H+]1CCC[C@@H](CNC(=O)C2=C3C=CC=CC3=CN=C2)C1
##########            Long Name:   NO_LONG_NAME
##########          FlexRecCode: 1
##########               Number:                 3722
##########   Ligand Source File: /nfs/db/export/3D/CF/ADMO/CFADMO.xbkt.db2.gz
##########                 Rank:                    1
##########               Setnum:                    6
##########             Matchnum:                    1
##########                Cloud:                    1
##########        Electrostatic:           -39.420227
##########                 Gist:             0.000000
##########        Van der Waals:           -32.680477
##########  Ligand Polar Desolv:            18.610565
########## Ligand Apolar Desolv:            -4.625556
##########      Internal Energy:             0.000000
##########      Receptor Energy:             0.000000
########## Receptor Desolvation:             0.000000
########## Receptor Hydrophobic:             0.000000
##########         Total Energy:           -58.115700
##########        Ligand Charge:             1.000000
##########            Arbitrary:    +999.9990
##########        Ligand Energy:             0.000000

@<TRIPOS>MOLECULE
 ZINC000338089150      none
   46    48     0     0     0



@<TRIPOS>ATOM
      1 C1        -21.6655    16.6516   -17.4893 C.3        1  LIG1  -0.1900
      2 C2        -20.2729    17.1872   -17.1506 C.3        1  LIG1  -0.0100
      3 N1        -19.3070    16.7040   -18.1464 N.4        1  LIG1  -0.3800
      4 H1        -19.2914    15.6953   -18.1365 H          1  LIG1   0.4200
      5 C3        -19.7047    17.1726   -19.4793 C.3        1  LIG1  -0.0100
      6 C4        -18.7479    16.6053   -20.5301 C.3        1  LIG1  -0.1400
      7 C5        -17.3240    17.0789   -20.2246 C.3        1  LIG1  -0.1400
      8 C6        -16.9471    16.6486   -18.8040 C.3        1  LIG1  -0.1200
      9 H2        -16.9446    15.5603   -18.7419 H          1  LIG1   0.1000
     10 C7        -15.5552    17.1829   -18.4606 C.3        1  LIG1   0.1300
     11 N2        -14.9965    16.4108   -17.3481 N.am       1  LIG1  -0.7300
     12 C8        -15.2144    16.8048   -16.0777 C.2        1  LIG1   0.5800
     13 O1        -15.8748    17.8014   -15.8551 O.2        1  LIG1  -0.5200
     14 C9        -14.6521    16.0276   -14.9579 C.ar       1  LIG1  -0.1900
     15 C10       -15.0038    14.6219   -14.7601 C.ar       1  LIG1   0.0200
     16 C11       -15.8805    13.9424   -15.6094 C.ar       1  LIG1  -0.1200
     17 C12       -16.1657    12.6301   -15.3679 C.ar       1  LIG1  -0.0800
     18 C13       -15.5955    11.9600   -14.2881 C.ar       1  LIG1  -0.1200
     19 C14       -14.7368    12.5930   -13.4409 C.ar       1  LIG1  -0.0800
     20 C15       -14.4207    13.9433   -13.6592 C.ar       1  LIG1  -0.1200
     21 C16       -13.5426    14.6495   -12.8218 C.ar       1  LIG1   0.1900
     22 N3        -13.2640    15.9114   -13.0481 N.ar       1  LIG1  -0.5000
     23 C17       -13.7651    16.6036   -14.0568 C.ar       1  LIG1   0.1300
     24 C18       -17.9709    17.2158   -17.8182 C.3        1  LIG1   0.0000
     25 H3        -22.3822    17.0100   -16.7504 H          1  LIG1   0.0800
     26 H4        -21.9584    17.0012   -18.4792 H          1  LIG1   0.0800
     27 H5        -21.6479    15.5618   -17.4793 H          1  LIG1   0.1100
     28 H6        -20.2906    18.2770   -17.1606 H          1  LIG1   0.1300
     29 H7        -19.9799    16.8376   -16.1607 H          1  LIG1   0.1300
     30 H8        -20.7194    16.8377   -19.6939 H          1  LIG1   0.1300
     31 H9        -19.6691    18.2618   -19.5066 H          1  LIG1   0.1300
     32 H10       -18.7828    15.5162   -20.5039 H          1  LIG1   0.0900
     33 H11       -19.0438    16.9559   -21.5188 H          1  LIG1   0.1100
     34 H12       -16.6305    16.6318   -20.9369 H          1  LIG1   0.0900
     35 H13       -17.2767    18.1652   -20.3011 H          1  LIG1   0.0900
     36 H14       -14.9052    17.0892   -19.3306 H          1  LIG1   0.0800
     37 H15       -15.6294    18.2319   -18.1737 H          1  LIG1   0.0800
     38 H16       -14.4698    15.6159   -17.5257 H          1  LIG1   0.4000
     39 H17       -16.3290    14.4514   -16.4496 H          1  LIG1   0.1600
     40 H18       -16.8436    12.1035   -16.0233 H          1  LIG1   0.1300
     41 H19       -15.8386    10.9213   -14.1195 H          1  LIG1   0.1300
     42 H20       -14.3029    12.0603   -12.6077 H          1  LIG1   0.1400
     43 H21       -13.0905    14.1471   -11.9795 H          1  LIG1   0.1700
     44 H22       -13.4874    17.6404   -14.1768 H          1  LIG1   0.1500
     45 H23       -17.9716    18.3039   -17.8816 H          1  LIG1   0.1300
     46 H24       -17.7063    16.9119   -16.8054 H          1  LIG1   0.1300
@<TRIPOS>BOND
     1    1    2 1
     2    1   25 1
     3    1   26 1
     4    1   27 1
     5    2    3 1
     6    2   28 1
     7    2   29 1
     8    3    4 1
     9    3   24 1
    10    3    5 1
    11    5    6 1
    12    5   30 1
    13    5   31 1
    14    6    7 1
    15    6   32 1
    16    6   33 1
    17    7    8 1
    18    7   34 1
    19    7   35 1
    20    8    9 1
    21    8   10 1
    22    8   24 1
    23   10   11 1
    24   10   36 1
    25   10   37 1
    26   11   12 am
    27   11   38 1
    28   12   13 2
    29   12   14 1
    30   14   23 ar
    31   14   15 ar
    32   15   20 ar
    33   15   16 ar
    34   16   17 ar
    35   16   39 1
    36   17   18 ar
    37   17   40 1
    38   18   19 ar
    39   18   41 1
    40   19   20 ar
    41   19   42 1
    42   20   21 ar
    43   21   22 ar
    44   21   43 1
    45   22   23 ar
    46   23   44 1
    47   24   45 1
    48   24   46 1
##########                 Name:     ZINC000578959958
##########          Protonation:                 none
##########               SMILES:   C[C@H](O)C[C@H]1CCCC[N@H+]1CC1=NC2=CC(Cl)=CC=C2C(=O)N1
##########            Long Name:   NO_LONG_NAME
##########          FlexRecCode: 1
##########               Number:                14068
##########   Ligand Source File: /nfs/db/export/3D/EG/ADMO/EGADMO.xaco.db2.gz
##########                 Rank:                    1
##########               Setnum:                    9
##########             Matchnum:                    1
##########                Cloud:                    1
##########        Electrostatic:           -36.250511
##########                 Gist:             0.000000
##########        Van der Waals:           -31.418436
##########  Ligand Polar Desolv:            13.384643
########## Ligand Apolar Desolv:            -3.893545
##########      Internal Energy:             0.000000
##########      Receptor Energy:             0.000000
########## Receptor Desolvation:             0.000000
########## Receptor Hydrophobic:             0.000000
##########         Total Energy:           -58.177849
##########        Ligand Charge:             1.000000
##########            Arbitrary:    +999.9990
##########        Ligand Energy:             0.000000

@<TRIPOS>MOLECULE
 ZINC000578959958      none
   46    48     0     0     0



@<TRIPOS>ATOM
      1 C1        -22.1780    17.5777   -18.7962 C.3        1  LIG1  -0.1900
      2 C2        -20.8319    17.2985   -19.4677 C.3        1  LIG1   0.0800
      3 H1        -20.5563    18.1460   -20.0955 H          1  LIG1   0.1200
      4 O1        -20.9361    16.1230   -20.2734 O.3        1  LIG1  -0.5700
      5 C3        -19.7608    17.0888   -18.3954 C.3        1  LIG1  -0.1800
      6 C4        -18.4147    16.8096   -19.0669 C.3        1  LIG1   0.0300
      7 H2        -18.5669    16.1597   -19.9287 H          1  LIG1   0.1500
      8 C5        -17.7918    18.1292   -19.5276 C.3        1  LIG1  -0.1400
      9 C6        -16.4452    17.8447   -20.1991 C.3        1  LIG1  -0.1400
     10 C7        -15.5452    17.0900   -19.2164 C.3        1  LIG1  -0.1500
     11 C8        -16.2513    15.8090   -18.7672 C.3        1  LIG1  -0.0200
     12 N1        -17.5186    16.1500   -18.1097 N.4        1  LIG1  -0.3600
     13 H3        -17.9560    15.3077   -17.7673 H          1  LIG1   0.4400
     14 C9        -17.2559    17.0560   -16.9835 C.3        1  LIG1   0.0300
     15 C10       -16.3359    16.3805   -15.9994 C.2        1  LIG1   0.3700
     16 N2        -16.5754    15.1450   -15.6803 N.2        1  LIG1  -0.5200
     17 C11       -15.7906    14.4725   -14.8015 C.ar       1  LIG1   0.1500
     18 C12       -16.0472    13.1445   -14.4585 C.ar       1  LIG1  -0.0900
     19 C13       -15.2228    12.4997   -13.5612 C.ar       1  LIG1   0.0100
     20 Cl1       -15.5435    10.8474   -13.1362 Cl         1  LIG1  -0.0300
     21 C14       -14.1377    13.1566   -12.9930 C.ar       1  LIG1  -0.1100
     22 C15       -13.8650    14.4675   -13.3167 C.ar       1  LIG1  -0.0200
     23 C16       -14.6863    15.1368   -14.2217 C.ar       1  LIG1  -0.1800
     24 C17       -14.4435    16.5351   -14.6047 C.2        1  LIG1   0.5600
     25 O2        -13.5098    17.1644   -14.1421 O.2        1  LIG1  -0.4700
     26 N3        -15.2951    17.0940   -15.4958 N.am       1  LIG1  -0.6400
     27 H4        -22.4535    16.7303   -18.1685 H          1  LIG1   0.0600
     28 H5        -22.0985    18.4745   -18.1817 H          1  LIG1   0.0800
     29 H6        -22.9410    17.7272   -19.5601 H          1  LIG1   0.0800
     30 H7        -21.1788    15.3279   -19.7794 H          1  LIG1   0.3800
     31 H8        -19.6813    17.9856   -17.7809 H          1  LIG1   0.1300
     32 H9        -20.0363    16.2414   -17.7676 H          1  LIG1   0.0900
     33 H10       -18.4576    18.6170   -20.2395 H          1  LIG1   0.1100
     34 H11       -17.6389    18.7797   -18.6665 H          1  LIG1   0.0900
     35 H12       -16.6032    17.2364   -21.0896 H          1  LIG1   0.0900
     36 H13       -15.9713    18.7857   -20.4785 H          1  LIG1   0.1000
     37 H14       -14.6053    16.8351   -19.7058 H          1  LIG1   0.1100
     38 H15       -15.3457    17.7190   -18.3489 H          1  LIG1   0.0800
     39 H16       -16.4501    15.1806   -19.6354 H          1  LIG1   0.1300
     40 H17       -15.6131    15.2691   -18.0676 H          1  LIG1   0.1500
     41 H18       -16.7866    17.9679   -17.3526 H          1  LIG1   0.1600
     42 H19       -18.1956    17.3049   -16.4906 H          1  LIG1   0.1600
     43 H20       -16.8878    12.6243   -14.8936 H          1  LIG1   0.1600
     44 H21       -13.5034    12.6352   -12.2916 H          1  LIG1   0.1600
     45 H22       -13.0206    14.9731   -12.8718 H          1  LIG1   0.1600
     46 H23       -15.1656    18.0148   -15.7718 H          1  LIG1   0.4300
@<TRIPOS>BOND
     1    1    2 1
     2    1   27 1
     3    1   28 1
     4    1   29 1
     5    2    3 1
     6    2    4 1
     7    2    5 1
     8    4   30 1
     9    5    6 1
    10    5   31 1
    11    5   32 1
    12    6    7 1
    13    6   12 1
    14    6    8 1
    15    8    9 1
    16    8   33 1
    17    8   34 1
    18    9   10 1
    19    9   35 1
    20    9   36 1
    21   10   11 1
    22   10   37 1
    23   10   38 1
    24   11   12 1
    25   11   39 1
    26   11   40 1
    27   12   13 1
    28   12   14 1
    29   14   15 1
    30   14   41 1
    31   14   42 1
    32   15   26 1
    33   15   16 2
    34   16   17 1
    35   17   23 ar
    36   17   18 ar
    37   18   19 ar
    38   18   43 1
    39   19   20 1
    40   19   21 ar
    41   21   22 ar
    42   21   44 1
    43   22   23 ar
    44   22   45 1
    45   23   24 1
    46   24   25 2
    47   24   26 am
    48   26   46 1
##########                 Name:     ZINC000171258534
##########          Protonation:                 none
##########               SMILES:   CCC[N@H+]1CC[C@@H](CNC(=O)NC(C)(C)CCC2=CC=CC=C2)C1
##########            Long Name:   NO_LONG_NAME
##########          FlexRecCode: 1
##########               Number:                15298
##########   Ligand Source File: /nfs/db/export/3D/EG/ADMO/EGADMO.xadg.db2.gz
##########                 Rank:                    1
##########               Setnum:                  195
##########             Matchnum:                    1
##########                Cloud:                    1
##########        Electrostatic:           -42.577160
##########                 Gist:             0.000000
##########        Van der Waals:           -26.871552
##########  Ligand Polar Desolv:            17.111286
########## Ligand Apolar Desolv:            -5.757978
##########      Internal Energy:             0.000000
##########      Receptor Energy:             0.000000
########## Receptor Desolvation:             0.000000
########## Receptor Hydrophobic:             0.000000
##########         Total Energy:           -58.095406
##########        Ligand Charge:             1.000000
##########            Arbitrary:    +999.9990
##########        Ligand Energy:             0.000000

@<TRIPOS>MOLECULE
 ZINC000171258534      none
   58    59     0     0     0



@<TRIPOS>ATOM
      1 C1        -15.2760    12.8212   -14.5414 C.3        1  LIG1  -0.1600
      2 C2        -16.0405    13.4013   -15.7331 C.3        1  LIG1  -0.1500
      3 C3        -16.1973    14.9123   -15.5517 C.3        1  LIG1  -0.0100
      4 N1        -16.9312    15.4693   -16.6959 N.4        1  LIG1  -0.3900
      5 H1        -17.6801    14.8489   -16.9647 H          1  LIG1   0.4300
      6 C4        -17.4715    16.8031   -16.3548 C.3        1  LIG1  -0.0100
      7 C5        -17.3919    17.6625   -17.6301 C.3        1  LIG1  -0.1400
      8 C6        -16.7480    16.7455   -18.6953 C.3        1  LIG1  -0.1200
      9 H2        -17.5132    16.2760   -19.3135 H          1  LIG1   0.1100
     10 C7        -15.7619    17.5316   -19.5617 C.3        1  LIG1   0.1500
     11 N2        -16.3152    18.8568   -19.8515 N.am       1  LIG1  -0.7500
     12 C8        -17.0780    19.0438   -20.9466 C.2        1  LIG1   0.7100
     13 O1        -17.3070    18.1127   -21.6942 O.2        1  LIG1  -0.5800
     14 N3        -17.5871    20.2630   -21.2133 N.am       1  LIG1  -0.7300
     15 C9        -18.4162    20.4663   -22.4037 C.3        1  LIG1   0.1900
     16 C10       -18.8625    21.9282   -22.4709 C.3        1  LIG1  -0.1700
     17 C11       -17.6053    20.1225   -23.6548 C.3        1  LIG1  -0.1700
     18 C12       -19.6468    19.5603   -22.3289 C.3        1  LIG1  -0.1100
     19 C13       -20.1745    19.5343   -20.8930 C.3        1  LIG1  -0.0800
     20 C14       -21.3865    18.6418   -20.8193 C.ar       1  LIG1  -0.0900
     21 C15       -22.6465    19.1685   -21.0330 C.ar       1  LIG1  -0.1200
     22 C16       -23.7584    18.3498   -20.9653 C.ar       1  LIG1  -0.1200
     23 C17       -23.6102    17.0046   -20.6844 C.ar       1  LIG1  -0.1200
     24 C18       -22.3499    16.4778   -20.4716 C.ar       1  LIG1  -0.1200
     25 C19       -21.2378    17.2955   -20.5435 C.ar       1  LIG1  -0.1200
     26 C20       -16.0089    15.6849   -17.8401 C.3        1  LIG1   0.0000
     27 H3        -15.1643    11.7446   -14.6706 H          1  LIG1   0.0800
     28 H4        -14.2912    13.2842   -14.4813 H          1  LIG1   0.0700
     29 H5        -15.8283    13.0215   -13.6232 H          1  LIG1   0.0700
     30 H6        -15.4883    13.2009   -16.6512 H          1  LIG1   0.0900
     31 H7        -17.0255    12.9383   -15.7931 H          1  LIG1   0.0800
     32 H8        -16.7495    15.1127   -14.6335 H          1  LIG1   0.1300
     33 H9        -15.2123    15.3753   -15.4918 H          1  LIG1   0.1300
     34 H10       -18.5088    16.7123   -16.0324 H          1  LIG1   0.1300
     35 H11       -16.8726    17.2554   -15.5644 H          1  LIG1   0.1300
     36 H12       -18.3905    17.9652   -17.9453 H          1  LIG1   0.1100
     37 H13       -16.7669    18.5387   -17.4576 H          1  LIG1   0.1100
     38 H14       -14.8172    17.6409   -19.0291 H          1  LIG1   0.0800
     39 H15       -15.5925    16.9963   -20.4961 H          1  LIG1   0.0800
     40 H16       -16.1325    19.5996   -19.2550 H          1  LIG1   0.4000
     41 H17       -17.4043    21.0058   -20.6169 H          1  LIG1   0.4000
     42 H18       -19.4795    22.0793   -23.3568 H          1  LIG1   0.0800
     43 H19       -19.4403    22.1730   -21.5797 H          1  LIG1   0.0700
     44 H20       -17.9858    22.5736   -22.5243 H          1  LIG1   0.0500
     45 H21       -18.2221    20.2738   -24.5406 H          1  LIG1   0.0500
     46 H22       -16.7284    20.7679   -23.7082 H          1  LIG1   0.0700
     47 H23       -17.2874    19.0810   -23.6069 H          1  LIG1   0.0800
     48 H24       -20.4210    19.9432   -22.9937 H          1  LIG1   0.0700
     49 H25       -19.3732    18.5501   -22.6338 H          1  LIG1   0.0700
     50 H26       -19.4002    19.1513   -20.2283 H          1  LIG1   0.0800
     51 H27       -20.4479    20.5445   -20.5882 H          1  LIG1   0.0800
     52 H28       -22.7624    20.2196   -21.2525 H          1  LIG1   0.1200
     53 H29       -24.7429    18.7615   -21.1317 H          1  LIG1   0.1200
     54 H30       -24.4789    16.3652   -20.6309 H          1  LIG1   0.1200
     55 H31       -22.2341    15.4267   -20.2518 H          1  LIG1   0.1200
     56 H32       -20.2532    16.8840   -20.3772 H          1  LIG1   0.1200
     57 H33       -15.0504    16.0706   -17.4928 H          1  LIG1   0.1400
     58 H34       -15.8719    14.7628   -18.4048 H          1  LIG1   0.1400
@<TRIPOS>BOND
     1    1    2 1
     2    1   27 1
     3    1   28 1
     4    1   29 1
     5    2    3 1
     6    2   30 1
     7    2   31 1
     8    3    4 1
     9    3   32 1
    10    3   33 1
    11    4    5 1
    12    4   26 1
    13    4    6 1
    14    6    7 1
    15    6   34 1
    16    6   35 1
    17    7    8 1
    18    7   36 1
    19    7   37 1
    20    8    9 1
    21    8   10 1
    22    8   26 1
    23   10   11 1
    24   10   38 1
    25   10   39 1
    26   11   12 am
    27   11   40 1
    28   12   13 2
    29   12   14 am
    30   14   15 1
    31   14   41 1
    32   15   16 1
    33   15   17 1
    34   15   18 1
    35   16   42 1
    36   16   43 1
    37   16   44 1
    38   17   45 1
    39   17   46 1
    40   17   47 1
    41   18   19 1
    42   18   48 1
    43   18   49 1
    44   19   20 1
    45   19   50 1
    46   19   51 1
    47   20   25 ar
    48   20   21 ar
    49   21   22 ar
    50   21   52 1
    51   22   23 ar
    52   22   53 1
    53   23   24 ar
    54   23   54 1
    55   24   25 ar
    56   24   55 1
    57   25   56 1
    58   26   57 1
    59   26   58 1
##########                 Name:     ZINC000293715621
##########          Protonation:                 none
##########               SMILES:   OC[C@H]([NH2+]C[C@H](O)CC1=CC=C(F)C=C1)C1CCCC1
##########            Long Name:   NO_LONG_NAME
##########          FlexRecCode: 1
##########               Number:                 1549
##########   Ligand Source File: /nfs/db/export/3D/CD/ADRO/CDADRO.xcfm.db2.gz
##########                 Rank:                    1
##########               Setnum:                   71
##########             Matchnum:                    1
##########                Cloud:                    1
##########        Electrostatic:           -44.281761
##########                 Gist:             0.000000
##########        Van der Waals:           -23.072325
##########  Ligand Polar Desolv:            14.771679
########## Ligand Apolar Desolv:            -2.436147
##########      Internal Energy:             0.000000
##########      Receptor Energy:             0.000000
########## Receptor Desolvation:             0.000000
########## Receptor Hydrophobic:             0.000000
##########         Total Energy:           -55.018555
##########        Ligand Charge:             1.000000
##########            Arbitrary:    +999.9990
##########        Ligand Energy:             0.000000

@<TRIPOS>MOLECULE
 ZINC000293715621      none
   45    46     0     0     0



@<TRIPOS>ATOM
      1 O1        -17.9420    16.5391   -20.9687 O.3        1  LIG1  -0.5700
      2 C1        -18.3204    17.7293   -20.2742 C.3        1  LIG1   0.0500
      3 C2        -19.2081    17.3642   -19.0828 C.3        1  LIG1   0.0400
      4 H1        -19.4967    18.2720   -18.5531 H          1  LIG1   0.1500
      5 N1        -18.4672    16.4808   -18.1726 N.4        1  LIG1  -0.5000
      6 H2        -19.1177    15.9827   -17.5836 H          1  LIG1   0.4300
      7 H3        -17.9270    15.8199   -18.7109 H          1  LIG1   0.4300
      8 C3        -17.5657    17.2842   -17.3362 C.3        1  LIG1  -0.0500
      9 C4        -16.7940    16.3641   -16.3882 C.3        1  LIG1   0.0900
     10 H4        -16.2104    15.6504   -16.9697 H          1  LIG1   0.1300
     11 O2        -17.7153    15.6587   -15.5542 O.3        1  LIG1  -0.5500
     12 C5        -15.8551    17.2010   -15.5171 C.3        1  LIG1  -0.1000
     13 C6        -14.7709    16.3180   -14.9549 C.ar       1  LIG1  -0.1100
     14 C7        -13.5231    16.8460   -14.6807 C.ar       1  LIG1  -0.0700
     15 C8        -12.5281    16.0372   -14.1651 C.ar       1  LIG1  -0.1500
     16 C9        -12.7817    14.6977   -13.9227 C.ar       1  LIG1   0.1100
     17 F1        -11.8099    13.9063   -13.4183 F          1  LIG1  -0.1300
     18 C10       -14.0320    14.1702   -14.1974 C.ar       1  LIG1  -0.1500
     19 C11       -15.0269    14.9820   -14.7085 C.ar       1  LIG1  -0.0900
     20 C12       -20.4626    16.6450   -19.5829 C.3        1  LIG1  -0.1100
     21 C13       -21.4396    16.3806   -18.4105 C.3        1  LIG1  -0.1400
     22 C14       -22.8055    16.2439   -19.1280 C.3        1  LIG1  -0.1200
     23 C15       -22.7491    17.2983   -20.2527 C.3        1  LIG1  -0.1300
     24 C16       -21.2594    17.5533   -20.5420 C.3        1  LIG1  -0.1100
     25 H5        -18.6887    16.0311   -21.3144 H          1  LIG1   0.4100
     26 H6        -17.4267    18.2417   -19.9179 H          1  LIG1   0.0700
     27 H7        -18.8701    18.3848   -20.9497 H          1  LIG1   0.1000
     28 H8        -16.8629    17.8223   -17.9725 H          1  LIG1   0.1400
     29 H9        -18.1493    17.9980   -16.7548 H          1  LIG1   0.1400
     30 H10       -18.3424    15.1062   -16.0405 H          1  LIG1   0.3900
     31 H11       -15.4051    17.9890   -16.1209 H          1  LIG1   0.0900
     32 H12       -16.4202    17.6479   -14.6992 H          1  LIG1   0.0900
     33 H13       -13.3255    17.8908   -14.8698 H          1  LIG1   0.1300
     34 H14       -11.5531    16.4497   -13.9516 H          1  LIG1   0.1400
     35 H15       -14.2308    13.1255   -14.0091 H          1  LIG1   0.1400
     36 H16       -16.0023    14.5708   -14.9224 H          1  LIG1   0.1300
     37 H17       -20.1943    15.7109   -20.0767 H          1  LIG1   0.1100
     38 H18       -21.1810    15.4568   -17.8929 H          1  LIG1   0.0700
     39 H19       -21.4493    17.2226   -17.7185 H          1  LIG1   0.0800
     40 H20       -22.9177    15.2442   -19.5475 H          1  LIG1   0.0700
     41 H21       -23.6216    16.4636   -18.4398 H          1  LIG1   0.0800
     42 H22       -23.2432    16.9174   -21.1466 H          1  LIG1   0.0700
     43 H23       -23.2290    18.2203   -19.9246 H          1  LIG1   0.0700
     44 H24       -21.0163    18.5991   -20.3543 H          1  LIG1   0.0700
     45 H25       -21.0305    17.2961   -21.5762 H          1  LIG1   0.0800
@<TRIPOS>BOND
     1    1    2 1
     2    1   25 1
     3    2    3 1
     4    2   26 1
     5    2   27 1
     6    3    4 1
     7    3    5 1
     8    3   20 1
     9    5    6 1
    10    5    7 1
    11    5    8 1
    12    8    9 1
    13    8   28 1
    14    8   29 1
    15    9   10 1
    16    9   11 1
    17    9   12 1
    18   11   30 1
    19   12   13 1
    20   12   31 1
    21   12   32 1
    22   13   19 ar
    23   13   14 ar
    24   14   15 ar
    25   14   33 1
    26   15   16 ar
    27   15   34 1
    28   16   17 1
    29   16   18 ar
    30   18   19 ar
    31   18   35 1
    32   19   36 1
    33   20   24 1
    34   20   21 1
    35   20   37 1
    36   21   22 1
    37   21   38 1
    38   21   39 1
    39   22   23 1
    40   22   40 1
    41   22   41 1
    42   23   24 1
    43   23   42 1
    44   23   43 1
    45   24   44 1
    46   24   45 1
##########                 Name:     ZINC000289455893
##########          Protonation:                 none
##########               SMILES:   CC1=CC=CC(CC2(O)CC[NH+](CC[C@H](O)C3=CC=CC=C3)CC2)=C1
##########            Long Name:   NO_LONG_NAME
##########          FlexRecCode: 1
##########               Number:                10857
##########   Ligand Source File: /nfs/db/export/3D/EG/ADRO/EGADRO.xbit.db2.gz
##########                 Rank:                    1
##########               Setnum:                  143
##########             Matchnum:                    1
##########                Cloud:                    1
##########        Electrostatic:           -33.339813
##########                 Gist:             0.000000
##########        Van der Waals:           -29.203476
##########  Ligand Polar Desolv:            12.204674
########## Ligand Apolar Desolv:            -4.625145
##########      Internal Energy:             0.000000
##########      Receptor Energy:             0.000000
########## Receptor Desolvation:             0.000000
########## Receptor Hydrophobic:             0.000000
##########         Total Energy:           -54.963760
##########        Ligand Charge:             1.000000
##########            Arbitrary:    +999.9990
##########        Ligand Energy:             0.000000

@<TRIPOS>MOLECULE
 ZINC000289455893      none
   55    57     0     0     0



@<TRIPOS>ATOM
      1 C1        -17.1546    21.8657   -24.5129 C.3        1  LIG1  -0.1200
      2 C2        -16.7133    20.5775   -23.8672 C.ar       1  LIG1  -0.0800
      3 C3        -15.3949    20.1739   -23.9607 C.ar       1  LIG1  -0.1100
      4 C4        -14.9900    18.9920   -23.3683 C.ar       1  LIG1  -0.1100
      5 C5        -15.9038    18.2144   -22.6823 C.ar       1  LIG1  -0.1200
      6 C6        -17.2225    18.6186   -22.5881 C.ar       1  LIG1  -0.1000
      7 C7        -18.2190    17.7705   -21.8404 C.3        1  LIG1  -0.1000
      8 C8        -18.2478    18.1938   -20.3705 C.3        1  LIG1   0.1300
      9 O1        -19.0330    19.3879   -20.3134 O.3        1  LIG1  -0.5500
     10 C9        -18.9119    17.1039   -19.5156 C.3        1  LIG1  -0.1800
     11 C10       -18.8256    17.3858   -18.0194 C.3        1  LIG1   0.0000
     12 N1        -17.3840    17.6044   -17.6314 N.4        1  LIG1  -0.3800
     13 H1        -16.8602    16.7445   -17.9104 H          1  LIG1   0.4200
     14 C11       -17.2270    17.7535   -16.1430 C.3        1  LIG1  -0.0100
     15 C12       -17.2408    16.3709   -15.4877 C.3        1  LIG1  -0.1800
     16 C13       -16.0865    15.5328   -16.0410 C.3        1  LIG1   0.1600
     17 H2        -15.2016    16.1600   -16.1494 H          1  LIG1   0.1200
     18 O2        -16.4524    15.0007   -17.3157 O.3        1  LIG1  -0.5500
     19 C14       -15.7870    14.4015   -15.0915 C.ar       1  LIG1  -0.1400
     20 C15       -14.8710    14.5793   -14.0716 C.ar       1  LIG1  -0.1100
     21 C16       -14.5962    13.5416   -13.2007 C.ar       1  LIG1  -0.1100
     22 C17       -15.2379    12.3262   -13.3492 C.ar       1  LIG1  -0.1100
     23 C18       -16.1547    12.1487   -14.3686 C.ar       1  LIG1  -0.1100
     24 C19       -16.4325    13.1877   -15.2370 C.ar       1  LIG1  -0.1100
     25 C20       -16.7604    18.7598   -18.3748 C.3        1  LIG1  -0.0100
     26 C21       -16.8248    18.4930   -19.8749 C.3        1  LIG1  -0.1300
     27 C22       -17.6263    19.8023   -23.1765 C.ar       1  LIG1  -0.1200
     28 H3        -16.3037    22.3345   -25.0072 H          1  LIG1   0.0700
     29 H4        -17.9315    21.6561   -25.2482 H          1  LIG1   0.0700
     30 H5        -17.5478    22.5382   -23.7506 H          1  LIG1   0.0700
     31 H6        -14.6808    20.7816   -24.4966 H          1  LIG1   0.1300
     32 H7        -13.9598    18.6763   -23.4419 H          1  LIG1   0.1300
     33 H8        -15.5877    17.2909   -22.2201 H          1  LIG1   0.1300
     34 H9        -19.2091    17.9039   -22.2765 H          1  LIG1   0.0900
     35 H10       -17.9292    16.7222   -21.9111 H          1  LIG1   0.0900
     36 H11       -19.1249    19.7558   -19.4239 H          1  LIG1   0.3900
     37 H12       -19.9741    17.0143   -19.8103 H          1  LIG1   0.1200
     38 H13       -18.4287    16.1331   -19.7332 H          1  LIG1   0.1000
     39 H14       -19.3861    18.2824   -17.7735 H          1  LIG1   0.1300
     40 H15       -19.2078    16.5407   -17.4554 H          1  LIG1   0.1300
     41 H16       -16.2811    18.2491   -15.9252 H          1  LIG1   0.1400
     42 H17       -18.0493    18.3504   -15.7489 H          1  LIG1   0.1300
     43 H18       -17.1270    16.4788   -14.4090 H          1  LIG1   0.1000
     44 H19       -18.1867    15.8749   -15.7054 H          1  LIG1   0.0900
     45 H20       -17.2338    14.4315   -17.2947 H          1  LIG1   0.3800
     46 H21       -14.3696    15.5289   -13.9555 H          1  LIG1   0.1200
     47 H22       -13.8800    13.6802   -12.4043 H          1  LIG1   0.1300
     48 H23       -15.0227    11.5152   -12.6693 H          1  LIG1   0.1300
     49 H24       -16.6557    11.1991   -14.4849 H          1  LIG1   0.1300
     50 H25       -17.1487    13.0491   -16.0333 H          1  LIG1   0.1200
     51 H26       -17.3119    19.6622   -18.1301 H          1  LIG1   0.1400
     52 H27       -15.7276    18.8556   -18.0546 H          1  LIG1   0.1300
     53 H28       -16.1710    17.6358   -20.1224 H          1  LIG1   0.1000
     54 H29       -16.4325    19.3719   -20.4198 H          1  LIG1   0.1200
     55 H30       -18.6564    20.1181   -23.1030 H          1  LIG1   0.1200
@<TRIPOS>BOND
     1    1    2 1
     2    1   28 1
     3    1   29 1
     4    1   30 1
     5    2   27 ar
     6    2    3 ar
     7    3    4 ar
     8    3   31 1
     9    4    5 ar
    10    4   32 1
    11    5    6 ar
    12    5   33 1
    13    6    7 1
    14    6   27 ar
    15    7    8 1
    16    7   34 1
    17    7   35 1
    18    8   26 1
    19    8    9 1
    20    8   10 1
    21    9   36 1
    22   10   11 1
    23   10   37 1
    24   10   38 1
    25   11   12 1
    26   11   39 1
    27   11   40 1
    28   12   13 1
    29   12   14 1
    30   12   25 1
    31   14   15 1
    32   14   41 1
    33   14   42 1
    34   15   16 1
    35   15   43 1
    36   15   44 1
    37   16   17 1
    38   16   18 1
    39   16   19 1
    40   18   45 1
    41   19   24 ar
    42   19   20 ar
    43   20   21 ar
    44   20   46 1
    45   21   22 ar
    46   21   47 1
    47   22   23 ar
    48   22   48 1
    49   23   24 ar
    50   23   49 1
    51   24   50 1
    52   25   26 1
    53   25   51 1
    54   25   52 1
    55   26   53 1
    56   26   54 1
    57   27   55 1
##########                 Name:     ZINC000355272527
##########          Protonation:                 none
##########               SMILES:   C=CC[N@H+](CC1=CC=CC=C1)[C@@H](C)C(=O)NCC1=CC=CS1
##########            Long Name:   NO_LONG_NAME
##########          FlexRecCode: 1
##########               Number:                 9985
##########   Ligand Source File: /nfs/db/export/3D/DG/EDMO/DGEDMO.xbb.db2.gz
##########                 Rank:                    1
##########               Setnum:                   77
##########             Matchnum:                    1
##########                Cloud:                    1
##########        Electrostatic:           -32.659679
##########                 Gist:             0.000000
##########        Van der Waals:           -26.900736
##########  Ligand Polar Desolv:             9.385964
########## Ligand Apolar Desolv:            -4.840809
##########      Internal Energy:             0.000000
##########      Receptor Energy:             0.000000
########## Receptor Desolvation:             0.000000
########## Receptor Hydrophobic:             0.000000
##########         Total Energy:           -55.015263
##########        Ligand Charge:             1.000000
##########            Arbitrary:    +999.9990
##########        Ligand Energy:             0.000000

@<TRIPOS>MOLECULE
 ZINC000355272527      none
   45    46     0     0     0



@<TRIPOS>ATOM
      1 C1        -20.5284    16.7528   -19.9368 C.2        1  LIG1  -0.1000
      2 C2        -19.5848    17.6405   -19.7431 C.2        1  LIG1  -0.2400
      3 C3        -18.2515    17.4847   -20.4282 C.3        1  LIG1   0.0200
      4 N1        -17.1905    17.3826   -19.4173 N.4        1  LIG1  -0.3600
      5 H1        -17.1828    18.2187   -18.8524 H          1  LIG1   0.4300
      6 C4        -15.8909    17.2310   -20.0851 C.3        1  LIG1   0.0300
      7 C5        -15.4059    18.5790   -20.5527 C.ar       1  LIG1  -0.1500
      8 C6        -15.7452    19.0372   -21.8119 C.ar       1  LIG1  -0.1000
      9 C7        -15.3004    20.2736   -22.2409 C.ar       1  LIG1  -0.1200
     10 C8        -14.5166    21.0524   -21.4102 C.ar       1  LIG1  -0.0900
     11 C9        -14.1781    20.5949   -20.1504 C.ar       1  LIG1  -0.1100
     12 C10       -14.6265    19.3601   -19.7200 C.ar       1  LIG1  -0.0900
     13 C11       -17.4404    16.2154   -18.5613 C.3        1  LIG1   0.0000
     14 H2        -18.5074    16.1405   -18.3514 H          1  LIG1   0.1600
     15 C12       -16.9712    14.9477   -19.2779 C.3        1  LIG1  -0.1800
     16 C13       -16.6838    16.3703   -17.2673 C.2        1  LIG1   0.5100
     17 O1        -16.0034    17.3560   -17.0769 O.2        1  LIG1  -0.5200
     18 N2        -16.7632    15.4134   -16.3215 N.am       1  LIG1  -0.7000
     19 C14       -16.0276    15.5640   -15.0635 C.3        1  LIG1   0.2000
     20 C15       -15.6566    14.2033   -14.5326 C.2        1  LIG1  -0.2400
     21 C16       -14.9867    13.9755   -13.4018 C.2        1  LIG1  -0.1000
     22 C17       -14.7606    12.6399   -13.1166 C.2        1  LIG1  -0.1500
     23 C18       -15.2470    11.7831   -14.0158 C.2        1  LIG1  -0.1900
     24 S1        -16.0472    12.6722   -15.3053 S.3        1  LIG1   0.1200
     25 H3        -21.4839    16.8645   -19.4460 H          1  LIG1   0.1200
     26 H4        -20.3524    15.9117   -20.5910 H          1  LIG1   0.1100
     27 H5        -19.7622    18.4842   -19.0925 H          1  LIG1   0.1300
     28 H6        -18.2599    16.5817   -21.0385 H          1  LIG1   0.1400
     29 H7        -18.0661    18.3508   -21.0635 H          1  LIG1   0.1400
     30 H8        -15.1700    16.8081   -19.3855 H          1  LIG1   0.1500
     31 H9        -15.9982    16.5662   -20.9423 H          1  LIG1   0.1300
     32 H10       -16.3576    18.4286   -22.4610 H          1  LIG1   0.1300
     33 H11       -15.5649    20.6311   -23.2250 H          1  LIG1   0.1400
     34 H12       -14.1684    22.0182   -21.7455 H          1  LIG1   0.1400
     35 H13       -13.5653    21.2031   -19.5015 H          1  LIG1   0.1400
     36 H14       -14.3620    19.0026   -18.7358 H          1  LIG1   0.1300
     37 H15       -17.1566    14.0816   -18.6426 H          1  LIG1   0.0900
     38 H16       -17.5186    14.8357   -20.2138 H          1  LIG1   0.1100
     39 H17       -15.9042    15.0228   -19.4877 H          1  LIG1   0.1000
     40 H18       -17.3074    14.6250   -16.4736 H          1  LIG1   0.4100
     41 H19       -15.1222    16.1447   -15.2393 H          1  LIG1   0.1000
     42 H20       -16.6543    16.0795   -14.3356 H          1  LIG1   0.0900
     43 H21       -14.6461    14.7728   -12.7577 H          1  LIG1   0.1400
     44 H22       -14.2304    12.3163   -12.2333 H          1  LIG1   0.1500
     45 H23       -15.1652    10.7078   -13.9589 H          1  LIG1   0.1700
@<TRIPOS>BOND
     1    1    2 2
     2    1   25 1
     3    1   26 1
     4    2    3 1
     5    2   27 1
     6    3    4 1
     7    3   28 1
     8    3   29 1
     9    4    5 1
    10    4    6 1
    11    4   13 1
    12    6    7 1
    13    6   30 1
    14    6   31 1
    15    7   12 ar
    16    7    8 ar
    17    8    9 ar
    18    8   32 1
    19    9   10 ar
    20    9   33 1
    21   10   11 ar
    22   10   34 1
    23   11   12 ar
    24   11   35 1
    25   12   36 1
    26   13   14 1
    27   13   15 1
    28   13   16 1
    29   15   37 1
    30   15   38 1
    31   15   39 1
    32   16   17 2
    33   16   18 am
    34   18   19 1
    35   18   40 1
    36   19   20 1
    37   19   41 1
    38   19   42 1
    39   20   24 1
    40   20   21 2
    41   21   22 1
    42   21   43 1
    43   22   23 2
    44   22   44 1
    45   23   24 1
    46   23   45 1
##########                 Name:     ZINC000265241405
##########          Protonation:                 none
##########               SMILES:   CC[C@H](O)[C@H]1CCCC[N@@H+]1CC(=O)N[C@H](C)C1=CC=CS1
##########            Long Name:   NO_LONG_NAME
##########          FlexRecCode: 1
##########               Number:                10109
##########   Ligand Source File: /nfs/db/export/3D/DF/ADRO/DFADRO.xaxn.db2.gz
##########                 Rank:                    1
##########               Setnum:                  422
##########             Matchnum:                    1
##########                Cloud:                    1
##########        Electrostatic:           -30.806797
##########                 Gist:             0.000000
##########        Van der Waals:           -28.371855
##########  Ligand Polar Desolv:             7.779725
########## Ligand Apolar Desolv:            -3.558677
##########      Internal Energy:             0.000000
##########      Receptor Energy:             0.000000
########## Receptor Desolvation:             0.000000
########## Receptor Hydrophobic:             0.000000
##########         Total Energy:           -54.957603
##########        Ligand Charge:             1.000000
##########            Arbitrary:    +999.9990
##########        Ligand Energy:             0.000000

@<TRIPOS>MOLECULE
 ZINC000265241405      none
   48    49     0     0     0



@<TRIPOS>ATOM
      1 C1        -18.3638    19.2540   -23.0909 C.3        1  LIG1  -0.1600
      2 C2        -19.3815    19.0456   -21.9675 C.3        1  LIG1  -0.1500
      3 C3        -18.7549    18.1912   -20.8638 C.3        1  LIG1   0.0800
      4 H1        -17.8750    18.6978   -20.4674 H          1  LIG1   0.1200
      5 O1        -18.3729    16.9236   -21.4015 O.3        1  LIG1  -0.5500
      6 C4        -19.7726    17.9829   -19.7405 C.3        1  LIG1  -0.0100
      7 H2        -20.0636    18.9500   -19.3305 H          1  LIG1   0.1500
      8 C5        -21.0082    17.2730   -20.2976 C.3        1  LIG1  -0.1500
      9 C6        -22.0238    17.0670   -19.1700 C.3        1  LIG1  -0.1400
     10 C7        -21.3614    16.2764   -18.0380 C.3        1  LIG1  -0.1400
     11 C8        -20.1126    17.0234   -17.5645 C.3        1  LIG1  -0.0200
     12 N1        -19.1704    17.1645   -18.6812 N.4        1  LIG1  -0.3600
     13 H3        -18.9463    16.2517   -19.0482 H          1  LIG1   0.4300
     14 C9        -17.9421    17.8139   -18.2043 C.3        1  LIG1  -0.0400
     15 C10       -17.5904    17.2825   -16.8387 C.2        1  LIG1   0.5100
     16 O2        -18.0227    17.8285   -15.8457 O.2        1  LIG1  -0.5200
     17 N2        -16.7955    16.2006   -16.7207 N.am       1  LIG1  -0.7000
     18 C11       -16.4536    15.6840   -15.3931 C.3        1  LIG1   0.2200
     19 H4        -17.2830    15.8631   -14.7089 H          1  LIG1   0.1100
     20 C12       -15.2025    16.3963   -14.8753 C.3        1  LIG1  -0.1600
     21 C13       -16.1876    14.2034   -15.4834 C.2        1  LIG1  -0.2200
     22 C14       -16.2537    13.4770   -16.6002 C.2        1  LIG1  -0.1000
     23 C15       -15.9671    12.1324   -16.4391 C.2        1  LIG1  -0.1400
     24 C16       -15.6683    11.7668   -15.1917 C.2        1  LIG1  -0.1900
     25 S1        -15.7352    13.1703   -14.1337 S.3        1  LIG1   0.1000
     26 H5        -18.8102    19.8626   -23.8772 H          1  LIG1   0.0700
     27 H6        -17.4839    19.7605   -22.6946 H          1  LIG1   0.0700
     28 H7        -18.0725    18.2871   -23.5011 H          1  LIG1   0.0600
     29 H8        -19.6729    20.0124   -21.5573 H          1  LIG1   0.0800
     30 H9        -20.2614    18.5390   -22.3639 H          1  LIG1   0.0800
     31 H10       -17.9675    16.3284   -20.7560 H          1  LIG1   0.3900
     32 H11       -21.4551    17.8825   -21.0830 H          1  LIG1   0.1200
     33 H12       -20.7183    16.3055   -20.7076 H          1  LIG1   0.0900
     34 H13       -22.3525    18.0358   -18.7941 H          1  LIG1   0.0800
     35 H14       -22.8816    16.5114   -19.5491 H          1  LIG1   0.1000
     36 H15       -22.0606    16.1738   -17.2082 H          1  LIG1   0.1100
     37 H16       -21.0787    15.2883   -18.4010 H          1  LIG1   0.0900
     38 H17       -20.3964    18.0111   -17.2014 H          1  LIG1   0.1300
     39 H18       -19.6387    16.4633   -16.7583 H          1  LIG1   0.1500
     40 H19       -17.1273    17.6034   -18.8971 H          1  LIG1   0.1600
     41 H20       -18.0999    18.8909   -18.1456 H          1  LIG1   0.1600
     42 H21       -16.4496    15.7640   -17.5148 H          1  LIG1   0.4100
     43 H22       -14.9481    16.0119   -13.8875 H          1  LIG1   0.0800
     44 H23       -14.3730    16.2172   -15.5595 H          1  LIG1   0.0700
     45 H24       -15.3948    17.4672   -14.8099 H          1  LIG1   0.0700
     46 H25       -16.5116    13.9055   -17.5575 H          1  LIG1   0.1500
     47 H26       -15.9844    11.4322   -17.2613 H          1  LIG1   0.1500
     48 H27       -15.4196    10.7632   -14.8796 H          1  LIG1   0.1700
@<TRIPOS>BOND
     1    1    2 1
     2    1   26 1
     3    1   27 1
     4    1   28 1
     5    2    3 1
     6    2   29 1
     7    2   30 1
     8    3    4 1
     9    3    5 1
    10    3    6 1
    11    5   31 1
    12    6    7 1
    13    6   12 1
    14    6    8 1
    15    8    9 1
    16    8   32 1
    17    8   33 1
    18    9   10 1
    19    9   34 1
    20    9   35 1
    21   10   11 1
    22   10   36 1
    23   10   37 1
    24   11   12 1
    25   11   38 1
    26   11   39 1
    27   12   13 1
    28   12   14 1
    29   14   15 1
    30   14   40 1
    31   14   41 1
    32   15   16 2
    33   15   17 am
    34   17   18 1
    35   17   42 1
    36   18   19 1
    37   18   20 1
    38   18   21 1
    39   20   43 1
    40   20   44 1
    41   20   45 1
    42   21   25 1
    43   21   22 2
    44   22   23 1
    45   22   46 1
    46   23   24 2
    47   23   47 1
    48   24   25 1
    49   24   48 1
##########                 Name:     ZINC000183957699
##########          Protonation:                 none
##########               SMILES:   COC1=CC(CO[NH+]=C(N)C2CCCC2)=C([N+](=O)[O-])C=C1F
##########            Long Name:   NO_LONG_NAME
##########          FlexRecCode: 1
##########               Number:                 6772
##########   Ligand Source File: /nfs/db/export/3D/DF/EDMO/DFEDMO.xak.db2.gz
##########                 Rank:                    1
##########               Setnum:                   54
##########             Matchnum:                    1
##########                Cloud:                    1
##########        Electrostatic:           -34.043396
##########                 Gist:             0.000000
##########        Van der Waals:           -30.262609
##########  Ligand Polar Desolv:            13.345600
########## Ligand Apolar Desolv:            -4.058518
##########      Internal Energy:             0.000000
##########      Receptor Energy:             0.000000
########## Receptor Desolvation:             0.000000
########## Receptor Hydrophobic:             0.000000
##########         Total Energy:           -55.018925
##########        Ligand Charge:             1.000000
##########            Arbitrary:    +999.9990
##########        Ligand Energy:             0.000000

@<TRIPOS>MOLECULE
 ZINC000183957699      none
   41    42     0     0     0



@<TRIPOS>ATOM
      1 C1        -16.8475    11.3529   -16.2860 C.3        1  LIG1   0.0200
      2 O1        -16.0633    11.2250   -15.0982 O.3        1  LIG1  -0.2800
      3 C2        -15.4254    12.3414   -14.6565 C.ar       1  LIG1   0.1600
      4 C3        -15.5561    13.5355   -15.3484 C.ar       1  LIG1  -0.1800
      5 C4        -14.9066    14.6693   -14.8976 C.ar       1  LIG1   0.0000
      6 C5        -15.0493    15.9673   -15.6498 C.3        1  LIG1   0.0700
      7 O2        -15.8988    15.7708   -16.7821 O.3        1  LIG1  -0.1500
      8 N1        -15.7553    16.7573   -17.7879 N.pl3      1  LIG1  -0.4800
      9 H1        -14.9013    17.1992   -17.9153 H          1  LIG1   0.4600
     10 C6        -16.7617    17.0684   -18.5356 C.cat      1  LIG1   0.5600
     11 N2        -17.9741    16.4407   -18.3547 N.pl3      1  LIG1  -0.7800
     12 C7        -16.6090    18.1183   -19.6059 C.3        1  LIG1  -0.0900
     13 C8        -15.1943    18.0518   -20.2327 C.3        1  LIG1  -0.1200
     14 C9        -15.4054    18.7017   -21.6227 C.3        1  LIG1  -0.1300
     15 C10       -16.7943    18.1994   -22.0682 C.3        1  LIG1  -0.1300
     16 C11       -17.5597    17.8285   -20.7858 C.3        1  LIG1  -0.1200
     17 C12       -14.1266    14.6144   -13.7579 C.ar       1  LIG1  -0.0500
     18 N3        -13.4331    15.8307   -13.2781 N.pl3      1  LIG1   0.0300
     19 O3        -13.5499    16.8786   -13.8876 O.2        1  LIG1  -0.1200
     20 O4        -12.7456    15.7837   -12.2738 O.2        1  LIG1  -0.1700
     21 C13       -13.9934    13.4251   -13.0646 C.ar       1  LIG1  -0.0400
     22 C14       -14.6456    12.2890   -13.5077 C.ar       1  LIG1   0.0900
     23 F1        -14.5162    11.1272   -12.8304 F          1  LIG1  -0.1000
     24 H2        -17.3008    10.3915   -16.5274 H          1  LIG1   0.1200
     25 H3        -17.6307    12.0940   -16.1262 H          1  LIG1   0.0700
     26 H4        -16.2091    11.6710   -17.1102 H          1  LIG1   0.0700
     27 H5        -16.1649    13.5797   -16.2393 H          1  LIG1   0.1600
     28 H6        -15.4860    16.7209   -14.9945 H          1  LIG1   0.1200
     29 H7        -14.0680    16.3026   -15.9856 H          1  LIG1   0.1200
     30 H8        -18.0723    15.7649   -17.6657 H          1  LIG1   0.4300
     31 H9        -18.7298    16.6742   -18.9162 H          1  LIG1   0.4400
     32 H10       -16.8009    19.1100   -19.1962 H          1  LIG1   0.1400
     33 H11       -14.4822    18.6274   -19.6412 H          1  LIG1   0.0900
     34 H12       -14.8657    17.0176   -20.3356 H          1  LIG1   0.0800
     35 H13       -15.4011    19.7886   -21.5403 H          1  LIG1   0.0800
     36 H14       -14.6373    18.3681   -22.3204 H          1  LIG1   0.0900
     37 H15       -17.3226    18.9885   -22.6034 H          1  LIG1   0.0800
     38 H16       -16.6872    17.3221   -22.7060 H          1  LIG1   0.0800
     39 H17       -17.8239    16.7711   -20.8015 H          1  LIG1   0.0800
     40 H18       -18.4595    18.4374   -20.6987 H          1  LIG1   0.0900
     41 H19       -13.3832    13.3847   -12.1745 H          1  LIG1   0.1900
@<TRIPOS>BOND
     1    1    2 1
     2    1   24 1
     3    1   25 1
     4    1   26 1
     5    2    3 1
     6    3   22 ar
     7    3    4 ar
     8    4    5 ar
     9    4   27 1
    10    5    6 1
    11    5   17 ar
    12    6    7 1
    13    6   28 1
    14    6   29 1
    15    7    8 1
    16    8    9 1
    17    8   10 1
    18   10   11 2
    19   10   12 1
    20   11   30 1
    21   11   31 1
    22   12   16 1
    23   12   13 1
    24   12   32 1
    25   13   14 1
    26   13   33 1
    27   13   34 1
    28   14   15 1
    29   14   35 1
    30   14   36 1
    31   15   16 1
    32   15   37 1
    33   15   38 1
    34   16   39 1
    35   16   40 1
    36   17   18 1
    37   17   21 ar
    38   18   19 2
    39   18   20 2
    40   21   22 ar
    41   21   41 1
    42   22   23 1
##########                 Name:     ZINC000366663191
##########          Protonation:                 none
##########               SMILES:   CC(C)OC(=O)C1=CC=C(C[N@H+]2CC[C@@]3(C2)NC(=O)NC3=O)C=C1
##########            Long Name:   NO_LONG_NAME
##########          FlexRecCode: 1
##########               Number:                10935
##########   Ligand Source File: /nfs/db/export/3D/ED/ADMO/EDADMO.xbcb.db2.gz
##########                 Rank:                    1
##########               Setnum:                   39
##########             Matchnum:                    1
##########                Cloud:                    1
##########        Electrostatic:           -41.097374
##########                 Gist:             0.000000
##########        Van der Waals:           -34.616844
##########  Ligand Polar Desolv:            23.277346
########## Ligand Apolar Desolv:            -2.531755
##########      Internal Energy:             0.000000
##########      Receptor Energy:             0.000000
########## Receptor Desolvation:             0.000000
########## Receptor Hydrophobic:             0.000000
##########         Total Energy:           -54.968628
##########        Ligand Charge:             1.000000
##########            Arbitrary:    +999.9990
##########        Ligand Energy:             0.000000

@<TRIPOS>MOLECULE
 ZINC000366663191      none
   46    48     0     0     0



@<TRIPOS>ATOM
      1 C1        -13.0360    13.9464   -11.6282 C.3        1  LIG1  -0.1500
      2 C2        -12.5629    14.9420   -12.6894 C.3        1  LIG1   0.0800
      3 C3        -11.7699    14.2002   -13.7672 C.3        1  LIG1  -0.1700
      4 O1        -13.7141    15.5882   -13.2940 O.3        1  LIG1  -0.3500
      5 C4        -13.4690    16.4998   -14.2549 C.2        1  LIG1   0.5000
      6 O2        -12.4423    17.1486   -14.2289 O.2        1  LIG1  -0.4900
      7 C5        -14.4485    16.7115   -15.3403 C.ar       1  LIG1  -0.0800
      8 C6        -14.5651    17.9635   -15.9461 C.ar       1  LIG1  -0.0600
      9 C7        -15.4820    18.1537   -16.9591 C.ar       1  LIG1  -0.1000
     10 C8        -16.2851    17.1066   -17.3750 C.ar       1  LIG1  -0.1300
     11 C9        -17.2841    17.3217   -18.4826 C.3        1  LIG1   0.0400
     12 N1        -18.5680    16.7134   -18.1088 N.4        1  LIG1  -0.3900
     13 H1        -18.4133    15.8297   -17.6473 H          1  LIG1   0.4300
     14 C10       -19.3294    17.6293   -17.2199 C.3        1  LIG1  -0.0100
     15 C11       -20.7976    17.1576   -17.3921 C.3        1  LIG1  -0.1400
     16 C12       -20.8571    16.7780   -18.8794 C.3        1  LIG1   0.1000
     17 C13       -19.4113    16.5205   -19.3120 C.3        1  LIG1   0.0000
     18 N2        -21.7051    15.6070   -19.0986 N.am       1  LIG1  -0.7200
     19 C14       -22.6875    16.0060   -19.9323 C.2        1  LIG1   0.7000
     20 O3        -23.5770    15.2778   -20.3267 O.2        1  LIG1  -0.5000
     21 N3        -22.5722    17.2956   -20.2761 N.am       1  LIG1  -0.6700
     22 C15       -21.4955    17.8700   -19.6964 C.2        1  LIG1   0.5400
     23 O4        -21.1234    19.0182   -19.8094 O.2        1  LIG1  -0.4400
     24 C16       -16.1748    15.8627   -16.7792 C.ar       1  LIG1  -0.1000
     25 C17       -15.2581    15.6571   -15.7690 C.ar       1  LIG1  -0.0500
     26 H2        -13.6011    14.4748   -10.8604 H          1  LIG1   0.0900
     27 H3        -13.6720    13.1938   -12.0940 H          1  LIG1   0.0700
     28 H4        -12.1719    13.4613   -11.1742 H          1  LIG1   0.0700
     29 H5        -11.9268    15.6946   -12.2235 H          1  LIG1   0.0900
     30 H6        -11.4329    14.9094   -14.5231 H          1  LIG1   0.0700
     31 H7        -10.9056    13.7151   -13.3132 H          1  LIG1   0.0600
     32 H8        -12.4060    13.4475   -14.2330 H          1  LIG1   0.0800
     33 H9        -13.9390    18.7818   -15.6220 H          1  LIG1   0.1500
     34 H10       -15.5734    19.1221   -17.4281 H          1  LIG1   0.1400
     35 H11       -17.4221    18.3906   -18.6448 H          1  LIG1   0.1400
     36 H12       -16.9161    16.8597   -19.3987 H          1  LIG1   0.1400
     37 H13       -19.0080    17.5153   -16.1847 H          1  LIG1   0.1500
     38 H14       -19.2173    18.6632   -17.5466 H          1  LIG1   0.1500
     39 H15       -21.0013    16.2907   -16.7634 H          1  LIG1   0.1200
     40 H16       -21.4924    17.9680   -17.1718 H          1  LIG1   0.1300
     41 H17       -19.1218    17.2301   -20.0871 H          1  LIG1   0.1500
     42 H18       -19.3086    15.5005   -19.6822 H          1  LIG1   0.1600
     43 H19       -21.5851    14.7216   -18.7209 H          1  LIG1   0.4500
     44 H20       -23.1854    17.7592   -20.8678 H          1  LIG1   0.4500
     45 H21       -16.8047    15.0497   -17.1087 H          1  LIG1   0.1400
     46 H22       -15.1731    14.6858   -15.3048 H          1  LIG1   0.1500
@<TRIPOS>BOND
     1    1    2 1
     2    1   26 1
     3    1   27 1
     4    1   28 1
     5    2    3 1
     6    2    4 1
     7    2   29 1
     8    3   30 1
     9    3   31 1
    10    3   32 1
    11    4    5 1
    12    5    6 2
    13    5    7 1
    14    7   25 ar
    15    7    8 ar
    16    8    9 ar
    17    8   33 1
    18    9   10 ar
    19    9   34 1
    20   10   11 1
    21   10   24 ar
    22   11   12 1
    23   11   35 1
    24   11   36 1
    25   12   13 1
    26   12   17 1
    27   12   14 1
    28   14   15 1
    29   14   37 1
    30   14   38 1
    31   15   16 1
    32   15   39 1
    33   15   40 1
    34   16   22 1
    35   16   17 1
    36   16   18 1
    37   17   41 1
    38   17   42 1
    39   18   19 am
    40   18   43 1
    41   19   20 2
    42   19   21 am
    43   21   22 am
    44   21   44 1
    45   22   23 2
    46   24   25 ar
    47   24   45 1
    48   25   46 1
##########                 Name:     ZINC000237271811
##########          Protonation:                 none
##########               SMILES:   C[NH2+]C[C@H]1CCCN1C(=O)C1=CN=C(C2=CC=CC=C2Cl)S1
##########            Long Name:   NO_LONG_NAME
##########          FlexRecCode: 1
##########               Number:                16158
##########   Ligand Source File: /nfs/db/export/3D/EG/AARO/EGAARO.xag.db2.gz
##########                 Rank:                    1
##########               Setnum:                   56
##########             Matchnum:                    1
##########                Cloud:                    1
##########        Electrostatic:           -35.733265
##########                 Gist:             0.000000
##########        Van der Waals:           -26.195101
##########  Ligand Polar Desolv:            11.993731
########## Ligand Apolar Desolv:            -5.023721
##########      Internal Energy:             0.000000
##########      Receptor Energy:             0.000000
########## Receptor Desolvation:             0.000000
########## Receptor Hydrophobic:             0.000000
##########         Total Energy:           -54.958359
##########        Ligand Charge:             1.000000
##########            Arbitrary:    +999.9990
##########        Ligand Energy:             0.000000

@<TRIPOS>MOLECULE
 ZINC000237271811      none
   41    43     0     0     0



@<TRIPOS>ATOM
      1 C1        -20.7453    16.4079   -18.9968 C.3        1  LIG1  -0.0500
      2 N1        -19.5394    17.1999   -19.2734 N.4        1  LIG1  -0.5000
      3 H1        -19.6882    17.7626   -20.0976 H          1  LIG1   0.4200
      4 H2        -19.3437    17.8006   -18.4868 H          1  LIG1   0.4400
      5 C2        -18.4014    16.2977   -19.4954 C.3        1  LIG1  -0.0200
      6 C3        -17.1454    17.1226   -19.7834 C.3        1  LIG1   0.1100
      7 H3        -16.2561    16.5194   -19.6007 H          1  LIG1   0.1100
      8 C4        -17.1596    17.6059   -21.2491 C.3        1  LIG1  -0.1200
      9 C5        -16.5765    19.0402   -21.1474 C.3        1  LIG1  -0.1300
     10 C6        -17.1535    19.5152   -19.7906 C.3        1  LIG1   0.0800
     11 N2        -17.1241    18.3170   -18.9266 N.am       1  LIG1  -0.6200
     12 C7        -17.0876    18.3209   -17.5793 C.2        1  LIG1   0.6300
     13 O1        -17.5995    19.2345   -16.9594 O.2        1  LIG1  -0.5600
     14 C8        -16.4313    17.2248   -16.8608 C.2        1  LIG1  -0.3600
     15 C9        -15.1148    16.8651   -16.9664 C.2        1  LIG1   0.1700
     16 N3        -14.7788    15.8496   -16.2164 N.2        1  LIG1  -0.4600
     17 C10       -15.7121    15.3168   -15.4786 C.2        1  LIG1   0.1100
     18 C11       -15.5151    14.1670   -14.5718 C.ar       1  LIG1  -0.0500
     19 C12       -16.2404    12.9900   -14.7641 C.ar       1  LIG1  -0.0800
     20 C13       -16.0514    11.9200   -13.9140 C.ar       1  LIG1  -0.1100
     21 C14       -15.1458    12.0110   -12.8720 C.ar       1  LIG1  -0.0700
     22 C15       -14.4232    13.1740   -12.6745 C.ar       1  LIG1  -0.1100
     23 C16       -14.5979    14.2509   -13.5210 C.ar       1  LIG1   0.0100
     24 Cl1       -13.6905    15.7097   -13.2722 Cl         1  LIG1  -0.0200
     25 S1        -17.1937    16.1396   -15.7009 S.3        1  LIG1   0.2200
     26 H4        -20.5846    15.8000   -18.1065 H          1  LIG1   0.1200
     27 H5        -21.5898    17.0773   -18.8320 H          1  LIG1   0.1200
     28 H6        -20.9567    15.7590   -19.8466 H          1  LIG1   0.1300
     29 H7        -18.2406    15.6898   -18.6051 H          1  LIG1   0.1400
     30 H8        -18.6127    15.6487   -20.3453 H          1  LIG1   0.1300
     31 H9        -16.5241    16.9743   -21.8697 H          1  LIG1   0.1100
     32 H10       -18.1778    17.6301   -21.6372 H          1  LIG1   0.0900
     33 H11       -15.4869    19.0180   -21.1225 H          1  LIG1   0.0900
     34 H12       -16.9344    19.6661   -21.9648 H          1  LIG1   0.1100
     35 H13       -16.5289    20.3019   -19.3673 H          1  LIG1   0.0900
     36 H14       -18.1769    19.8686   -19.9164 H          1  LIG1   0.0900
     37 H15       -14.4159    17.3753   -17.6125 H          1  LIG1   0.1900
     38 H16       -16.9482    12.9173   -15.5766 H          1  LIG1   0.1300
     39 H17       -16.6121    11.0090   -14.0622 H          1  LIG1   0.1400
     40 H18       -15.0027    11.1703   -12.2094 H          1  LIG1   0.1400
     41 H19       -13.7179    13.2384   -11.8591 H          1  LIG1   0.1500
@<TRIPOS>BOND
     1    1    2 1
     2    1   26 1
     3    1   27 1
     4    1   28 1
     5    2    3 1
     6    2    4 1
     7    2    5 1
     8    5    6 1
     9    5   29 1
    10    5   30 1
    11    6    7 1
    12    6   11 1
    13    6    8 1
    14    8    9 1
    15    8   31 1
    16    8   32 1
    17    9   10 1
    18    9   33 1
    19    9   34 1
    20   10   11 1
    21   10   35 1
    22   10   36 1
    23   11   12 am
    24   12   13 2
    25   12   14 1
    26   14   25 1
    27   14   15 2
    28   15   16 1
    29   15   37 1
    30   16   17 2
    31   17   18 1
    32   17   25 1
    33   18   23 ar
    34   18   19 ar
    35   19   20 ar
    36   19   38 1
    37   20   21 ar
    38   20   39 1
    39   21   22 ar
    40   21   40 1
    41   22   23 ar
    42   22   41 1
    43   23   24 1
##########                 Name:     ZINC000340042211
##########          Protonation:                 none
##########               SMILES:   C[N@H+]1CCC[C@@H]1CCSC1=NC=CN1C1=CC=CC=C1
##########            Long Name:   NO_LONG_NAME
##########          FlexRecCode: 1
##########               Number:                12220
##########   Ligand Source File: /nfs/db/export/3D/CG/ADMO/CGADMO.xazl.db2.gz
##########                 Rank:                    1
##########               Setnum:                  135
##########             Matchnum:                    1
##########                Cloud:                    1
##########        Electrostatic:           -33.821831
##########                 Gist:             0.000000
##########        Van der Waals:           -27.309580
##########  Ligand Polar Desolv:            13.190145
########## Ligand Apolar Desolv:            -7.054416
##########      Internal Energy:             0.000000
##########      Receptor Energy:             0.000000
########## Receptor Desolvation:             0.000000
########## Receptor Hydrophobic:             0.000000
##########         Total Energy:           -54.995682
##########        Ligand Charge:             1.000000
##########            Arbitrary:    +999.9990
##########        Ligand Energy:             0.000000

@<TRIPOS>MOLECULE
 ZINC000340042211      none
   42    44     0     0     0



@<TRIPOS>ATOM
      1 C1        -19.2107    17.8208   -18.4679 C.3        1  LIG1  -0.0500
      2 N1        -18.2921    16.6840   -18.6155 N.4        1  LIG1  -0.3900
      3 H1        -18.6670    15.8790   -18.1364 H          1  LIG1   0.4200
      4 C2        -18.1139    16.3712   -20.0495 C.3        1  LIG1  -0.0100
      5 C3        -16.8196    17.1171   -20.4592 C.3        1  LIG1  -0.1400
      6 C4        -15.9458    16.9500   -19.1882 C.3        1  LIG1  -0.1400
      7 C5        -16.9768    17.0318   -18.0469 C.3        1  LIG1   0.0300
      8 H2        -17.0033    18.0438   -17.6430 H          1  LIG1   0.1400
      9 C6        -16.6095    16.0400   -16.9415 C.3        1  LIG1  -0.1300
     10 C7        -17.3380    16.4213   -15.6512 C.3        1  LIG1  -0.1300
     11 S1        -16.9035    15.2479   -14.3436 S.3        1  LIG1   0.0200
     12 C8        -15.1596    15.4923   -14.2802 C.2        1  LIG1   0.1800
     13 N2        -14.5298    16.6100   -14.5583 N.2        1  LIG1  -0.4900
     14 C9        -13.2079    16.4273   -14.4018 C.2        1  LIG1  -0.0100
     15 C10       -12.9979    15.1578   -14.0140 C.2        1  LIG1  -0.0300
     16 N3        -14.2343    14.5541   -13.9282 N.pl3      1  LIG1  -0.3900
     17 C11       -14.4911    13.2266   -13.5578 C.ar       1  LIG1   0.1000
     18 C12       -13.6489    12.5784   -12.6646 C.ar       1  LIG1  -0.1100
     19 C13       -13.9043    11.2704   -12.3016 C.ar       1  LIG1  -0.1000
     20 C14       -14.9974    10.6064   -12.8274 C.ar       1  LIG1  -0.1000
     21 C15       -15.8382    11.2495   -13.7172 C.ar       1  LIG1  -0.1000
     22 C16       -15.5913    12.5594   -14.0791 C.ar       1  LIG1  -0.1100
     23 H3        -18.8022    18.6879   -18.9867 H          1  LIG1   0.1200
     24 H4        -20.1790    17.5635   -18.8972 H          1  LIG1   0.1200
     25 H5        -19.3327    18.0544   -17.4103 H          1  LIG1   0.1200
     26 H6        -17.9941    15.2971   -20.1915 H          1  LIG1   0.1300
     27 H7        -18.9626    16.7387   -20.6263 H          1  LIG1   0.1400
     28 H8        -16.3508    16.6413   -21.3207 H          1  LIG1   0.1200
     29 H9        -17.0219    18.1695   -20.6585 H          1  LIG1   0.1000
     30 H10       -15.4459    15.9814   -19.1889 H          1  LIG1   0.1000
     31 H11       -15.2199    17.7594   -19.1104 H          1  LIG1   0.1200
     32 H12       -16.9052    15.0349   -17.2423 H          1  LIG1   0.1000
     33 H13       -15.5330    16.0665   -16.7724 H          1  LIG1   0.1200
     34 H14       -17.0423    17.4264   -15.3505 H          1  LIG1   0.1100
     35 H15       -18.4145    16.3946   -15.8204 H          1  LIG1   0.0900
     36 H16       -12.4438    17.1738   -14.5608 H          1  LIG1   0.1800
     37 H17       -12.0428    14.6989   -13.8056 H          1  LIG1   0.1900
     38 H18       -12.7945    13.0961   -12.2543 H          1  LIG1   0.1300
     39 H19       -13.2494    10.7656   -11.6069 H          1  LIG1   0.1400
     40 H20       -15.1948     9.5836   -12.5425 H          1  LIG1   0.1400
     41 H21       -16.6909    10.7283   -14.1264 H          1  LIG1   0.1400
     42 H22       -16.2484    13.0612   -14.7739 H          1  LIG1   0.1300
@<TRIPOS>BOND
     1    1    2 1
     2    1   23 1
     3    1   24 1
     4    1   25 1
     5    2    3 1
     6    2    7 1
     7    2    4 1
     8    4    5 1
     9    4   26 1
    10    4   27 1
    11    5    6 1
    12    5   28 1
    13    5   29 1
    14    6    7 1
    15    6   30 1
    16    6   31 1
    17    7    8 1
    18    7    9 1
    19    9   10 1
    20    9   32 1
    21    9   33 1
    22   10   11 1
    23   10   34 1
    24   10   35 1
    25   11   12 1
    26   12   16 1
    27   12   13 2
    28   13   14 1
    29   14   15 2
    30   14   36 1
    31   15   16 1
    32   15   37 1
    33   16   17 1
    34   17   22 ar
    35   17   18 ar
    36   18   19 ar
    37   18   38 1
    38   19   20 ar
    39   19   39 1
    40   20   21 ar
    41   20   40 1
    42   21   22 ar
    43   21   41 1
    44   22   42 1
##########                 Name:     ZINC000420078628
##########          Protonation:                 none
##########               SMILES:   C[N@@H+](CC(=O)NCCOC1=CN=CC(Cl)=C1)[C@H]1CCSC1
##########            Long Name:   NO_LONG_NAME
##########          FlexRecCode: 1
##########               Number:                13265
##########   Ligand Source File: /nfs/db/export/3D/ED/ADMO/EDADMO.xbvg.db2.gz
##########                 Rank:                    1
##########               Setnum:                   12
##########             Matchnum:                    1
##########                Cloud:                    1
##########        Electrostatic:           -36.061577
##########                 Gist:             0.000000
##########        Van der Waals:           -29.597986
##########  Ligand Polar Desolv:            14.261683
########## Ligand Apolar Desolv:            -3.564451
##########      Internal Energy:             0.000000
##########      Receptor Energy:             0.000000
########## Receptor Desolvation:             0.000000
########## Receptor Hydrophobic:             0.000000
##########         Total Energy:           -54.962330
##########        Ligand Charge:             1.000000
##########            Arbitrary:    +999.9990
##########        Ligand Energy:             0.000000

@<TRIPOS>MOLECULE
 ZINC000420078628      none
   42    43     0     0     0



@<TRIPOS>ATOM
      1 C1        -18.7288    16.2061   -20.6274 C.3        1  LIG1  -0.0600
      2 N1        -19.2681    16.7130   -19.3585 N.4        1  LIG1  -0.3700
      3 H1        -19.1348    16.0211   -18.6361 H          1  LIG1   0.4300
      4 C2        -18.5668    17.9494   -18.9876 C.3        1  LIG1  -0.0400
      5 C3        -17.0954    17.6646   -18.8300 C.2        1  LIG1   0.5000
      6 O1        -16.2878    18.2436   -19.5254 O.2        1  LIG1  -0.5200
      7 N2        -16.6769    16.7665   -17.9165 N.am       1  LIG1  -0.7000
      8 C4        -15.2464    16.4895   -17.7632 C.3        1  LIG1   0.1200
      9 C5        -14.9561    16.0924   -16.3146 C.3        1  LIG1   0.0400
     10 O2        -15.7061    14.9224   -15.9820 O.3        1  LIG1  -0.3100
     11 C6        -15.1652    14.0845   -15.0586 C.ar       1  LIG1   0.0800
     12 C7        -15.4236    12.7224   -15.1081 C.ar       1  LIG1   0.0200
     13 N3        -14.9012    11.9052   -14.2152 N.ar       1  LIG1  -0.4300
     14 C8        -14.1194    12.3416   -13.2476 C.ar       1  LIG1   0.0900
     15 C9        -13.8154    13.6867   -13.1326 C.ar       1  LIG1  -0.0500
     16 Cl1       -12.7847    14.2483   -11.8536 Cl         1  LIG1  -0.0300
     17 C10       -14.3400    14.5798   -14.0542 C.ar       1  LIG1  -0.1000
     18 C11       -20.7023    16.9907   -19.5121 C.3        1  LIG1   0.0200
     19 H2        -20.8487    17.7379   -20.2920 H          1  LIG1   0.1500
     20 C12       -21.4412    15.6958   -19.8922 C.3        1  LIG1  -0.1500
     21 C13       -22.9574    15.9739   -19.7178 C.3        1  LIG1  -0.0800
     22 S1        -23.0005    16.9144   -18.1432 S.3        1  LIG1  -0.2000
     23 C14       -21.2738    17.5155   -18.1786 C.3        1  LIG1  -0.1300
     24 H3        -18.8726    16.9533   -21.4078 H          1  LIG1   0.1300
     25 H4        -17.6644    16.0000   -20.5134 H          1  LIG1   0.1200
     26 H5        -19.2491    15.2886   -20.9026 H          1  LIG1   0.1400
     27 H6        -18.7106    18.6968   -19.7678 H          1  LIG1   0.1600
     28 H7        -18.9669    18.3255   -18.0459 H          1  LIG1   0.1600
     29 H8        -17.3228    16.3034   -17.3603 H          1  LIG1   0.4100
     30 H9        -14.9612    15.6739   -18.4278 H          1  LIG1   0.1000
     31 H10       -14.6744    17.3820   -18.0170 H          1  LIG1   0.1100
     32 H11       -13.8919    15.8863   -16.2007 H          1  LIG1   0.1000
     33 H12       -15.2415    16.9079   -15.6501 H          1  LIG1   0.0800
     34 H13       -16.0599    12.3274   -15.8861 H          1  LIG1   0.1600
     35 H14       -13.7109    11.6402   -12.5351 H          1  LIG1   0.1700
     36 H15       -14.1197    15.6350   -13.9894 H          1  LIG1   0.1500
     37 H16       -21.2272    15.4358   -20.9289 H          1  LIG1   0.1200
     38 H17       -21.1331    14.8841   -19.2330 H          1  LIG1   0.1100
     39 H18       -23.3384    16.5779   -20.5412 H          1  LIG1   0.1100
     40 H19       -23.5151    15.0417   -19.6284 H          1  LIG1   0.1300
     41 H20       -20.7129    17.1098   -17.3367 H          1  LIG1   0.1100
     42 H21       -21.2504    18.6051   -18.1621 H          1  LIG1   0.1300
@<TRIPOS>BOND
     1    1    2 1
     2    1   24 1
     3    1   25 1
     4    1   26 1
     5    2    3 1
     6    2    4 1
     7    2   18 1
     8    4    5 1
     9    4   27 1
    10    4   28 1
    11    5    6 2
    12    5    7 am
    13    7    8 1
    14    7   29 1
    15    8    9 1
    16    8   30 1
    17    8   31 1
    18    9   10 1
    19    9   32 1
    20    9   33 1
    21   10   11 1
    22   11   17 ar
    23   11   12 ar
    24   12   13 ar
    25   12   34 1
    26   13   14 ar
    27   14   15 ar
    28   14   35 1
    29   15   16 1
    30   15   17 ar
    31   17   36 1
    32   18   19 1
    33   18   23 1
    34   18   20 1
    35   20   21 1
    36   20   37 1
    37   20   38 1
    38   21   22 1
    39   21   39 1
    40   21   40 1
    41   22   23 1
    42   23   41 1
    43   23   42 1
##########                 Name:     ZINC000282590349
##########          Protonation:                 none
##########               SMILES:   CS(=O)(=O)[C@@H]1CCN(C(=O)N[C@@H](C[NH+]2CCCC2)c2ccccc2)C1
##########            Long Name:   NO_LONG_NAME
##########          FlexRecCode: 1
##########               Number:                 8566
##########   Ligand Source File: /nfs/db/export/3D/FD/ADMO/FDADMO.xkn.db2.gz
##########                 Rank:                    1
##########               Setnum:                   19
##########             Matchnum:                    1
##########                Cloud:                    1
##########        Electrostatic:           -32.285294
##########                 Gist:             0.000000
##########        Van der Waals:           -30.639109
##########  Ligand Polar Desolv:            11.603965
########## Ligand Apolar Desolv:            -3.664100
##########      Internal Energy:             0.000000
##########      Receptor Energy:             0.000000
########## Receptor Desolvation:             0.000000
########## Receptor Hydrophobic:             0.000000
##########         Total Energy:           -54.984535
##########        Ligand Charge:             1.000000
##########            Arbitrary:    +999.9990
##########        Ligand Energy:             0.000000

@<TRIPOS>MOLECULE
 ZINC000282590349      none
   53    55     0     0     0



@<TRIPOS>ATOM
      1 C1        -15.0600    23.1057   -25.9124 C.3        1  LIG1  -0.6500
      2 S1        -14.5333    22.5458   -24.2693 S.o2       1  LIG1   2.4300
      3 O1        -13.2425    21.9623   -24.3821 O.2        1  LIG1  -0.9300
      4 O2        -14.7378    23.6042   -23.3433 O.2        1  LIG1  -0.9200
      5 C2        -15.7333    21.2314   -23.9189 C.3        1  LIG1  -0.6100
      6 H1        -15.6747    20.4419   -24.6681 H          1  LIG1   0.1500
      7 C3        -17.1727    21.8030   -23.8248 C.3        1  LIG1  -0.1100
      8 C4        -17.8855    20.7940   -22.8999 C.3        1  LIG1   0.1000
      9 N1        -16.8459    20.1092   -22.1175 N.am       1  LIG1  -0.6200
     10 C5        -17.0595    19.1375   -21.2083 C.2        1  LIG1   0.7300
     11 O3        -16.1200    18.6402   -20.6181 O.2        1  LIG1  -0.5800
     12 N2        -18.3143    18.7171   -20.9534 N.am       1  LIG1  -0.7300
     13 C6        -18.5464    17.6608   -19.9650 C.3        1  LIG1   0.2000
     14 H2        -18.0224    16.7555   -20.2712 H          1  LIG1   0.1200
     15 C7        -18.0247    18.1155   -18.6005 C.3        1  LIG1  -0.0200
     16 N3        -17.8094    16.9424   -17.7429 N.4        1  LIG1  -0.3900
     17 H3        -18.5550    16.2750   -17.8721 H          1  LIG1   0.4200
     18 C8        -16.5000    16.3141   -18.0538 C.3        1  LIG1  -0.0100
     19 C9        -16.1762    15.5142   -16.7669 C.3        1  LIG1  -0.1400
     20 C10       -16.6971    16.4403   -15.6440 C.3        1  LIG1  -0.1400
     21 C11       -17.7340    17.3546   -16.3244 C.3        1  LIG1  -0.0100
     22 C12       -20.0236    17.3783   -19.8693 C.ar       1  LIG1  -0.1400
     23 C13       -20.4648    16.1127   -19.5311 C.ar       1  LIG1  -0.1000
     24 C14       -21.8198    15.8536   -19.4432 C.ar       1  LIG1  -0.1000
     25 C15       -22.7336    16.8602   -19.6931 C.ar       1  LIG1  -0.1000
     26 C16       -22.2925    18.1261   -20.0303 C.ar       1  LIG1  -0.1100
     27 C17       -20.9374    18.3863   -20.1140 C.ar       1  LIG1  -0.1200
     28 C18       -15.5307    20.6601   -22.4933 C.3        1  LIG1   0.1400
     29 H4        -16.0500    23.5565   -25.8426 H          1  LIG1   0.1300
     30 H5        -14.3510    23.8428   -26.2897 H          1  LIG1   0.1300
     31 H6        -15.0955    22.2545   -26.5924 H          1  LIG1   0.1400
     32 H7        -17.1644    22.7969   -23.3775 H          1  LIG1   0.1000
     33 H8        -17.6439    21.8249   -24.8074 H          1  LIG1   0.1100
     34 H9        -18.5660    21.3210   -22.2311 H          1  LIG1   0.0800
     35 H10       -18.4375    20.0689   -23.4978 H          1  LIG1   0.0800
     36 H11       -19.0638    19.1139   -21.4242 H          1  LIG1   0.4100
     37 H12       -17.0826    18.6481   -18.7308 H          1  LIG1   0.1400
     38 H13       -18.7547    18.7773   -18.1345 H          1  LIG1   0.1300
     39 H14       -16.5876    15.6458   -18.9104 H          1  LIG1   0.1300
     40 H15       -15.7412    17.0754   -18.2345 H          1  LIG1   0.1400
     41 H16       -16.7082    14.5627   -16.7601 H          1  LIG1   0.1000
     42 H17       -15.1019    15.3573   -16.6704 H          1  LIG1   0.1200
     43 H18       -17.1708    15.8520   -14.8579 H          1  LIG1   0.1100
     44 H19       -15.8800    17.0335   -15.2335 H          1  LIG1   0.1000
     45 H20       -17.4131    18.3941   -16.2574 H          1  LIG1   0.1300
     46 H21       -18.7066    17.2319   -15.8482 H          1  LIG1   0.1300
     47 H22       -19.7508    15.3262   -19.3358 H          1  LIG1   0.1300
     48 H23       -22.1645    14.8645   -19.1797 H          1  LIG1   0.1300
     49 H24       -23.7922    16.6576   -19.6251 H          1  LIG1   0.1300
     50 H25       -23.0064    18.9125   -20.2259 H          1  LIG1   0.1400
     51 H26       -20.5927    19.3753   -20.3775 H          1  LIG1   0.1300
     52 H27       -14.7779    19.8718   -22.5029 H          1  LIG1   0.1000
     53 H28       -15.2412    21.4540   -21.8050 H          1  LIG1   0.0900
@<TRIPOS>BOND
     1    1    2 1
     2    1   29 1
     3    1   30 1
     4    1   31 1
     5    2    3 2
     6    2    4 2
     7    2    5 1
     8    5    6 1
     9    5   28 1
    10    5    7 1
    11    7    8 1
    12    7   32 1
    13    7   33 1
    14    8    9 1
    15    8   34 1
    16    8   35 1
    17    9   10 am
    18    9   28 1
    19   10   11 2
    20   10   12 am
    21   12   13 1
    22   12   36 1
    23   13   14 1
    24   13   15 1
    25   13   22 1
    26   15   16 1
    27   15   37 1
    28   15   38 1
    29   16   17 1
    30   16   21 1
    31   16   18 1
    32   18   19 1
    33   18   39 1
    34   18   40 1
    35   19   20 1
    36   19   41 1
    37   19   42 1
    38   20   21 1
    39   20   43 1
    40   20   44 1
    41   21   45 1
    42   21   46 1
    43   22   27 ar
    44   22   23 ar
    45   23   24 ar
    46   23   47 1
    47   24   25 ar
    48   24   48 1
    49   25   26 ar
    50   25   49 1
    51   26   27 ar
    52   26   50 1
    53   27   51 1
    54   28   52 1
    55   28   53 1
##########                 Name:     ZINC000188921501
##########          Protonation:                 none
##########               SMILES:   COC1=CC=CC=C1/C=C/C[NH2+][C@H](CO)CC1=CC=CC=C1C
##########            Long Name:   NO_LONG_NAME
##########          FlexRecCode: 1
##########               Number:                11930
##########   Ligand Source File: /nfs/db/export/3D/DG/ADRO/DGADRO.xbvq.db2.gz
##########                 Rank:                    1
##########               Setnum:                  169
##########             Matchnum:                    1
##########                Cloud:                    1
##########        Electrostatic:           -32.426586
##########                 Gist:             0.000000
##########        Van der Waals:           -31.505661
##########  Ligand Polar Desolv:            12.679699
########## Ligand Apolar Desolv:            -3.745032
##########      Internal Energy:             0.000000
##########      Receptor Energy:             0.000000
########## Receptor Desolvation:             0.000000
########## Receptor Hydrophobic:             0.000000
##########         Total Energy:           -54.997581
##########        Ligand Charge:             1.000000
##########            Arbitrary:    +999.9990
##########        Ligand Energy:             0.000000

@<TRIPOS>MOLECULE
 ZINC000188921501      none
   49    50     0     0     0



@<TRIPOS>ATOM
      1 C1        -16.5055    11.3207   -15.8651 C.3        1  LIG1   0.0200
      2 O1        -16.2792    12.7234   -16.0173 O.3        1  LIG1  -0.3200
      3 C2        -15.4965    13.3265   -15.0853 C.ar       1  LIG1   0.1600
      4 C3        -14.9524    12.5853   -14.0495 C.ar       1  LIG1  -0.2100
      5 C4        -14.1560    13.2001   -13.1014 C.ar       1  LIG1  -0.0500
      6 C5        -13.8967    14.5570   -13.1797 C.ar       1  LIG1  -0.1600
      7 C6        -14.4319    15.3092   -14.2055 C.ar       1  LIG1  -0.0600
      8 C7        -15.2318    14.6988   -15.1712 C.ar       1  LIG1  -0.1300
      9 C8        -15.8072    15.4985   -16.2721 C.2        1  LIG1   0.0000
     10 C9        -16.6118    16.5172   -16.0014 C.2        1  LIG1  -0.2700
     11 C10       -17.1988    17.3329   -17.1244 C.3        1  LIG1   0.0400
     12 N1        -18.4819    16.7476   -17.5360 N.4        1  LIG1  -0.5000
     13 H1        -18.3340    15.8002   -17.8501 H          1  LIG1   0.4300
     14 H2        -19.1180    16.7469   -16.7527 H          1  LIG1   0.4300
     15 C11       -19.0540    17.5428   -18.6307 C.3        1  LIG1   0.0300
     16 H3        -18.8890    18.6023   -18.4350 H          1  LIG1   0.1500
     17 C12       -20.5563    17.2702   -18.7279 C.3        1  LIG1   0.0500
     18 O2        -21.1096    17.1770   -17.4137 O.3        1  LIG1  -0.5800
     19 C13       -18.3792    17.1564   -19.9484 C.3        1  LIG1  -0.0900
     20 C14       -18.5800    18.2575   -20.9575 C.ar       1  LIG1  -0.1300
     21 C15       -19.6885    18.2448   -21.7826 C.ar       1  LIG1  -0.1300
     22 C16       -19.8729    19.2550   -22.7084 C.ar       1  LIG1  -0.1100
     23 C17       -18.9486    20.2779   -22.8083 C.ar       1  LIG1  -0.1000
     24 C18       -17.8402    20.2910   -21.9822 C.ar       1  LIG1  -0.1100
     25 C19       -17.6582    19.2834   -21.0537 C.ar       1  LIG1  -0.0700
     26 C20       -16.4499    19.2978   -20.1532 C.3        1  LIG1  -0.1300
     27 H4        -17.1448    10.9658   -16.6736 H          1  LIG1   0.0600
     28 H5        -15.5521    10.7932   -15.8976 H          1  LIG1   0.1100
     29 H6        -16.9922    11.1330   -14.9080 H          1  LIG1   0.0600
     30 H7        -15.1509    11.5259   -13.9820 H          1  LIG1   0.1400
     31 H8        -13.7341    12.6183   -12.2952 H          1  LIG1   0.1300
     32 H9        -13.2734    15.0294   -12.4349 H          1  LIG1   0.1300
     33 H10       -14.2278    16.3682   -14.2628 H          1  LIG1   0.1300
     34 H11       -15.5726    15.2534   -17.2975 H          1  LIG1   0.1300
     35 H12       -16.8466    16.7623   -14.9760 H          1  LIG1   0.1400
     36 H13       -17.3586    18.3564   -16.7851 H          1  LIG1   0.1400
     37 H14       -16.5118    17.3337   -17.9705 H          1  LIG1   0.1300
     38 H15       -21.0391    18.0842   -19.2687 H          1  LIG1   0.0700
     39 H16       -20.7219    16.3327   -19.2591 H          1  LIG1   0.0900
     40 H17       -22.0611    17.0048   -17.3988 H          1  LIG1   0.4100
     41 H18       -17.3125    17.0077   -19.7803 H          1  LIG1   0.1100
     42 H19       -18.8197    16.2333   -20.3253 H          1  LIG1   0.1200
     43 H20       -20.4107    17.4455   -21.7047 H          1  LIG1   0.1200
     44 H21       -20.7388    19.2447   -23.3538 H          1  LIG1   0.1300
     45 H22       -19.0922    21.0667   -23.5318 H          1  LIG1   0.1300
     46 H23       -17.1178    21.0901   -22.0604 H          1  LIG1   0.1300
     47 H24       -15.8431    20.1763   -20.3733 H          1  LIG1   0.0800
     48 H25       -16.7727    19.3308   -19.1126 H          1  LIG1   0.0600
     49 H26       -15.8599    18.3970   -20.3223 H          1  LIG1   0.0800
@<TRIPOS>BOND
     1    1    2 1
     2    1   27 1
     3    1   28 1
     4    1   29 1
     5    2    3 1
     6    3    8 ar
     7    3    4 ar
     8    4    5 ar
     9    4   30 1
    10    5    6 ar
    11    5   31 1
    12    6    7 ar
    13    6   32 1
    14    7    8 ar
    15    7   33 1
    16    8    9 1
    17    9   10 2
    18    9   34 1
    19   10   11 1
    20   10   35 1
    21   11   12 1
    22   11   36 1
    23   11   37 1
    24   12   13 1
    25   12   14 1
    26   12   15 1
    27   15   16 1
    28   15   17 1
    29   15   19 1
    30   17   18 1
    31   17   38 1
    32   17   39 1
    33   18   40 1
    34   19   20 1
    35   19   41 1
    36   19   42 1
    37   20   25 ar
    38   20   21 ar
    39   21   22 ar
    40   21   43 1
    41   22   23 ar
    42   22   44 1
    43   23   24 ar
    44   23   45 1
    45   24   25 ar
    46   24   46 1
    47   25   26 1
    48   26   47 1
    49   26   48 1
    50   26   49 1
##########                 Name:     ZINC000495792510
##########          Protonation:                 none
##########               SMILES:   CN1C[C@H](C[NH+]2CCC(C3=CC=CC(F)=C3F)CC2)OC1=O
##########            Long Name:   NO_LONG_NAME
##########          FlexRecCode: 1
##########               Number:                10012
##########   Ligand Source File: /nfs/db/export/3D/DF/ADRO/DFADRO.xalz.db2.gz
##########                 Rank:                    1
##########               Setnum:                   16
##########             Matchnum:                    1
##########                Cloud:                    1
##########        Electrostatic:           -44.330925
##########                 Gist:             0.000000
##########        Van der Waals:           -29.342743
##########  Ligand Polar Desolv:            23.846756
########## Ligand Apolar Desolv:            -5.129875
##########      Internal Energy:             0.000000
##########      Receptor Energy:             0.000000
########## Receptor Desolvation:             0.000000
########## Receptor Hydrophobic:             0.000000
##########         Total Energy:           -54.956787
##########        Ligand Charge:             1.000000
##########            Arbitrary:    +999.9990
##########        Ligand Energy:             0.000000

@<TRIPOS>MOLECULE
 ZINC000495792510      none
   43    45     0     0     0



@<TRIPOS>ATOM
      1 C1        -15.2847    12.1661   -14.3882 C.3        1  LIG1   0.1100
      2 N1        -15.5449    13.5786   -14.6768 N.am       1  LIG1  -0.6300
      3 C2        -16.6986    14.1003   -15.4256 C.3        1  LIG1   0.0800
      4 C3        -16.4743    15.6248   -15.4298 C.3        1  LIG1   0.0400
      5 H1        -17.2947    16.1332   -14.9235 H          1  LIG1   0.1400
      6 C4        -16.3277    16.1414   -16.8625 C.3        1  LIG1  -0.0100
      7 N2        -17.6573    16.2812   -17.4711 N.4        1  LIG1  -0.3800
      8 H2        -18.2353    15.5009   -17.1968 H          1  LIG1   0.4300
      9 C5        -17.5253    16.3006   -18.9328 C.3        1  LIG1  -0.0100
     10 C6        -18.9135    16.3644   -19.5733 C.3        1  LIG1  -0.1400
     11 C7        -19.6270    17.6365   -19.1068 C.3        1  LIG1  -0.0600
     12 C8        -21.0238    17.6669   -19.6716 C.ar       1  LIG1  -0.1000
     13 C9        -21.4141    18.7067   -20.4942 C.ar       1  LIG1  -0.1000
     14 C10       -22.6953    18.7360   -21.0131 C.ar       1  LIG1  -0.0900
     15 C11       -23.5883    17.7255   -20.7105 C.ar       1  LIG1  -0.1200
     16 C12       -23.2005    16.6827   -19.8871 C.ar       1  LIG1   0.0800
     17 F1        -24.0729    15.6946   -19.5908 F          1  LIG1  -0.1200
     18 C13       -21.9140    16.6504   -19.3713 C.ar       1  LIG1   0.0700
     19 F2        -21.5330    15.6337   -18.5674 F          1  LIG1  -0.1200
     20 C14       -19.6930    17.6411   -17.5768 C.3        1  LIG1  -0.1400
     21 C15       -18.2752    17.5309   -17.0117 C.3        1  LIG1  -0.0100
     22 O1        -15.2309    15.8004   -14.6908 O.3        1  LIG1  -0.3300
     23 C16       -14.7737    14.6065   -14.2969 C.2        1  LIG1   0.6400
     24 O2        -13.7485    14.4664   -13.6598 O.2        1  LIG1  -0.4900
     25 H3        -16.0777    11.5551   -14.8195 H          1  LIG1   0.1000
     26 H4        -14.3272    11.8772   -14.8213 H          1  LIG1   0.0800
     27 H5        -15.2558    12.0151   -13.3090 H          1  LIG1   0.0800
     28 H6        -16.7020    13.7110   -16.4437 H          1  LIG1   0.1100
     29 H7        -17.6296    13.8517   -14.9164 H          1  LIG1   0.1100
     30 H8        -15.8300    17.1110   -16.8500 H          1  LIG1   0.1400
     31 H9        -15.7343    15.4359   -17.4441 H          1  LIG1   0.1600
     32 H10       -16.9464    17.1739   -19.2332 H          1  LIG1   0.1400
     33 H11       -17.0145    15.3960   -19.2630 H          1  LIG1   0.1300
     34 H12       -18.8131    16.3804   -20.6586 H          1  LIG1   0.1200
     35 H13       -19.4932    15.4913   -19.2737 H          1  LIG1   0.1000
     36 H14       -19.0752    18.5111   -19.4517 H          1  LIG1   0.1000
     37 H15       -20.7178    19.4973   -20.7315 H          1  LIG1   0.1400
     38 H16       -22.9987    19.5496   -21.6553 H          1  LIG1   0.1500
     39 H17       -24.5889    17.7498   -21.1162 H          1  LIG1   0.1500
     40 H18       -20.1499    18.5699   -17.2351 H          1  LIG1   0.1200
     41 H19       -20.2889    16.7945   -17.2357 H          1  LIG1   0.0900
     42 H20       -18.3174    17.5339   -15.9225 H          1  LIG1   0.1400
     43 H21       -17.6813    18.3784   -17.3537 H          1  LIG1   0.1300
@<TRIPOS>BOND
     1    1    2 1
     2    1   25 1
     3    1   26 1
     4    1   27 1
     5    2   23 am
     6    2    3 1
     7    3    4 1
     8    3   28 1
     9    3   29 1
    10    4    5 1
    11    4    6 1
    12    4   22 1
    13    6    7 1
    14    6   30 1
    15    6   31 1
    16    7    8 1
    17    7   21 1
    18    7    9 1
    19    9   10 1
    20    9   32 1
    21    9   33 1
    22   10   11 1
    23   10   34 1
    24   10   35 1
    25   11   12 1
    26   11   20 1
    27   11   36 1
    28   12   18 ar
    29   12   13 ar
    30   13   14 ar
    31   13   37 1
    32   14   15 ar
    33   14   38 1
    34   15   16 ar
    35   15   39 1
    36   16   17 1
    37   16   18 ar
    38   18   19 1
    39   20   21 1
    40   20   40 1
    41   20   41 1
    42   21   42 1
    43   21   43 1
    44   22   23 1
    45   23   24 2
##########                 Name:     ZINC000352875051
##########          Protonation:                 none
##########               SMILES:   COCCOC1=CC=C(C(=O)N[C@@H]2CC[N@H+](C3CC3)C2)C(Cl)=C1
##########            Long Name:   NO_LONG_NAME
##########          FlexRecCode: 1
##########               Number:                13466
##########   Ligand Source File: /nfs/db/export/3D/EE/ADMO/EEADMO.xawb.db2.gz
##########                 Rank:                    1
##########               Setnum:                   28
##########             Matchnum:                    1
##########                Cloud:                    1
##########        Electrostatic:           -38.529945
##########                 Gist:             0.000000
##########        Van der Waals:           -28.114462
##########  Ligand Polar Desolv:            15.178099
########## Ligand Apolar Desolv:            -3.516144
##########      Internal Energy:             0.000000
##########      Receptor Energy:             0.000000
########## Receptor Desolvation:             0.000000
########## Receptor Hydrophobic:             0.000000
##########         Total Energy:           -54.982452
##########        Ligand Charge:             1.000000
##########            Arbitrary:    +999.9990
##########        Ligand Energy:             0.000000

@<TRIPOS>MOLECULE
 ZINC000352875051      none
   47    49     0     0     0



@<TRIPOS>ATOM
      1 C1        -10.7259    26.5012   -13.5257 C.3        1  LIG1   0.0300
      2 O1        -11.3787    25.5987   -14.4209 O.3        1  LIG1  -0.3900
      3 C2        -10.9791    24.2355   -14.2660 C.3        1  LIG1   0.0600
      4 C3        -11.7374    23.3645   -15.2696 C.3        1  LIG1   0.0600
      5 O2        -11.3378    22.0013   -15.1147 O.3        1  LIG1  -0.2900
      6 C4        -12.2608    21.0514   -15.4107 C.ar       1  LIG1   0.1900
      7 C5        -13.2246    21.3006   -16.3811 C.ar       1  LIG1  -0.2200
      8 C6        -14.1629    20.3401   -16.6857 C.ar       1  LIG1  -0.0300
      9 C7        -14.1452    19.1122   -16.0190 C.ar       1  LIG1  -0.1900
     10 C8        -15.1483    18.0799   -16.3426 C.2        1  LIG1   0.5700
     11 O3        -15.9014    17.6721   -15.4794 O.2        1  LIG1  -0.5000
     12 N1        -15.2301    17.5890   -17.5951 N.am       1  LIG1  -0.7300
     13 C9        -16.2262    16.5640   -17.9166 C.3        1  LIG1   0.1400
     14 H1        -16.0738    15.6708   -17.3108 H          1  LIG1   0.1300
     15 C10       -16.2019    16.2204   -19.4293 C.3        1  LIG1  -0.1600
     16 C11       -17.6379    15.7222   -19.6958 C.3        1  LIG1   0.0000
     17 N2        -18.4973    16.2789   -18.6349 N.4        1  LIG1  -0.3600
     18 H2        -18.9130    15.5274   -18.1054 H          1  LIG1   0.4300
     19 C12       -19.5532    17.1044   -19.2364 C.3        1  LIG1  -0.0800
     20 C13       -20.8780    16.4188   -19.5767 C.3        1  LIG1  -0.1500
     21 C14       -20.7983    17.3840   -18.3922 C.3        1  LIG1  -0.1600
     22 C15       -17.6640    17.1136   -17.7427 C.3        1  LIG1  -0.0200
     23 C16       -13.1731    18.8644   -15.0439 C.ar       1  LIG1   0.0600
     24 Cl1       -13.1447    17.3412   -14.2114 Cl         1  LIG1  -0.0100
     25 C17       -12.2347    19.8301   -14.7488 C.ar       1  LIG1  -0.1600
     26 H3        -11.0836    27.5148   -13.7067 H          1  LIG1   0.0400
     27 H4        -10.9471    26.2162   -12.4971 H          1  LIG1   0.0500
     28 H5         -9.6492    26.4609   -13.6903 H          1  LIG1   0.0900
     29 H6         -9.9077    24.1483   -14.4460 H          1  LIG1   0.0700
     30 H7        -11.2055    23.9035   -13.2528 H          1  LIG1   0.0800
     31 H8        -12.8089    23.4518   -15.0895 H          1  LIG1   0.0900
     32 H9        -11.5109    23.6966   -16.2828 H          1  LIG1   0.0800
     33 H10       -13.2381    22.2497   -16.8962 H          1  LIG1   0.1400
     34 H11       -14.9119    20.5356   -17.4388 H          1  LIG1   0.1300
     35 H12       -14.6293    17.9142   -18.2838 H          1  LIG1   0.4100
     36 H13       -15.9856    17.1087   -20.0228 H          1  LIG1   0.1000
     37 H14       -15.4765    15.4330   -19.6340 H          1  LIG1   0.1200
     38 H15       -17.9772    16.0733   -20.6703 H          1  LIG1   0.1400
     39 H16       -17.6648    14.6331   -19.6615 H          1  LIG1   0.1400
     40 H17       -19.2093    17.8948   -19.9034 H          1  LIG1   0.1800
     41 H18       -21.4060    16.7582   -20.4679 H          1  LIG1   0.1300
     42 H19       -20.9660    15.3554   -19.3543 H          1  LIG1   0.1200
     43 H20       -20.8339    16.9556   -17.3906 H          1  LIG1   0.1200
     44 H21       -21.2737    18.3584   -18.5042 H          1  LIG1   0.1300
     45 H22       -17.9902    17.0058   -16.7083 H          1  LIG1   0.1400
     46 H23       -17.7096    18.1588   -18.0489 H          1  LIG1   0.1400
     47 H24       -11.4836    19.6405   -13.9964 H          1  LIG1   0.1500
@<TRIPOS>BOND
     1    1    2 1
     2    1   26 1
     3    1   27 1
     4    1   28 1
     5    2    3 1
     6    3    4 1
     7    3   29 1
     8    3   30 1
     9    4    5 1
    10    4   31 1
    11    4   32 1
    12    5    6 1
    13    6   25 ar
    14    6    7 ar
    15    7    8 ar
    16    7   33 1
    17    8    9 ar
    18    8   34 1
    19    9   10 1
    20    9   23 ar
    21   10   11 2
    22   10   12 am
    23   12   13 1
    24   12   35 1
    25   13   14 1
    26   13   22 1
    27   13   15 1
    28   15   16 1
    29   15   36 1
    30   15   37 1
    31   16   17 1
    32   16   38 1
    33   16   39 1
    34   17   18 1
    35   17   19 1
    36   17   22 1
    37   19   21 1
    38   19   20 1
    39   19   40 1
    40   20   21 1
    41   20   41 1
    42   20   42 1
    43   21   43 1
    44   21   44 1
    45   22   45 1
    46   22   46 1
    47   23   24 1
    48   23   25 ar
    49   25   47 1
##########                 Name:     ZINC000625451167
##########          Protonation:                 none
##########               SMILES:   CC[C@@H](CO)[N@@H+](C)CC(=O)NC1=CC=C(Cl)C(F)=C1
##########            Long Name:   NO_LONG_NAME
##########          FlexRecCode: 1
##########               Number:                  927
##########   Ligand Source File: /nfs/db/export/3D/CE/ADMO/CEADMO.xaxh.db2.gz
##########                 Rank:                    1
##########               Setnum:                  186
##########             Matchnum:                    1
##########                Cloud:                    1
##########        Electrostatic:           -39.572090
##########                 Gist:             0.000000
##########        Van der Waals:           -23.270088
##########  Ligand Polar Desolv:            10.518436
########## Ligand Apolar Desolv:            -2.692002
##########      Internal Energy:             0.000000
##########      Receptor Energy:             0.000000
########## Receptor Desolvation:             0.000000
########## Receptor Hydrophobic:             0.000000
##########         Total Energy:           -55.015743
##########        Ligand Charge:             1.000000
##########            Arbitrary:    +999.9990
##########        Ligand Energy:             0.000000

@<TRIPOS>MOLECULE
 ZINC000625451167      none
   38    38     0     0     0



@<TRIPOS>ATOM
      1 C1        -16.1737    18.3027   -22.1495 C.3        1  LIG1  -0.1800
      2 C2        -17.2382    18.6611   -21.1107 C.3        1  LIG1  -0.1400
      3 C3        -17.1421    17.6952   -19.9281 C.3        1  LIG1   0.0300
      4 H1        -17.3043    16.6755   -20.2776 H          1  LIG1   0.1600
      5 C4        -15.7539    17.8020   -19.2936 C.3        1  LIG1   0.0500
      6 O1        -15.5412    19.1386   -18.8354 O.3        1  LIG1  -0.5800
      7 N1        -18.1642    18.0393   -18.9306 N.4        1  LIG1  -0.3700
      8 H2        -17.8440    18.8191   -18.3761 H          1  LIG1   0.4300
      9 C5        -19.4123    18.4041   -19.6140 C.3        1  LIG1  -0.0600
     10 C6        -18.4043    16.8830   -18.0569 C.3        1  LIG1  -0.0300
     11 C7        -17.3187    16.8071   -17.0144 C.2        1  LIG1   0.5000
     12 O2        -16.7791    17.8214   -16.6259 O.2        1  LIG1  -0.5100
     13 N2        -16.9475    15.6121   -16.5138 N.am       1  LIG1  -0.6500
     14 C8        -15.9392    15.5415   -15.5456 C.ar       1  LIG1   0.1600
     15 C9        -15.9499    14.5213   -14.6039 C.ar       1  LIG1  -0.1300
     16 C10       -14.9541    14.4528   -13.6487 C.ar       1  LIG1  -0.0600
     17 C11       -13.9460    15.3996   -13.6290 C.ar       1  LIG1  -0.0800
     18 Cl1       -12.6964    15.3103   -12.4273 Cl         1  LIG1  -0.0300
     19 C12       -13.9318    16.4193   -14.5680 C.ar       1  LIG1   0.1300
     20 F1        -12.9459    17.3428   -14.5472 F          1  LIG1  -0.1200
     21 C13       -14.9238    16.4885   -15.5290 C.ar       1  LIG1  -0.1400
     22 H3        -16.2420    18.9908   -22.9922 H          1  LIG1   0.0500
     23 H4        -15.1846    18.3789   -21.6976 H          1  LIG1   0.0900
     24 H5        -16.3357    17.2831   -22.4991 H          1  LIG1   0.0700
     25 H6        -17.0759    19.6807   -20.7612 H          1  LIG1   0.1100
     26 H7        -18.2270    18.5849   -21.5627 H          1  LIG1   0.0900
     27 H8        -15.6856    17.1138   -18.4511 H          1  LIG1   0.0800
     28 H9        -14.9956    17.5466   -20.0338 H          1  LIG1   0.1000
     29 H10       -16.1810    19.4340   -18.1732 H          1  LIG1   0.4100
     30 H11       -20.1707    18.6595   -18.8739 H          1  LIG1   0.1200
     31 H12       -19.2340    19.2621   -20.2623 H          1  LIG1   0.1400
     32 H13       -19.7582    17.5618   -20.2130 H          1  LIG1   0.1300
     33 H14       -19.3717    16.9926   -17.5667 H          1  LIG1   0.1800
     34 H15       -18.4003    15.9702   -18.6528 H          1  LIG1   0.1600
     35 H16       -17.3792    14.8008   -16.8246 H          1  LIG1   0.4300
     36 H17       -16.7366    13.7816   -14.6178 H          1  LIG1   0.1500
     37 H18       -14.9630    13.6593   -12.9162 H          1  LIG1   0.1600
     38 H19       -14.9131    17.2826   -16.2610 H          1  LIG1   0.1600
@<TRIPOS>BOND
     1    1    2 1
     2    1   22 1
     3    1   23 1
     4    1   24 1
     5    2    3 1
     6    2   25 1
     7    2   26 1
     8    3    4 1
     9    3    5 1
    10    3    7 1
    11    5    6 1
    12    5   27 1
    13    5   28 1
    14    6   29 1
    15    7    8 1
    16    7    9 1
    17    7   10 1
    18    9   30 1
    19    9   31 1
    20    9   32 1
    21   10   11 1
    22   10   33 1
    23   10   34 1
    24   11   12 2
    25   11   13 am
    26   13   14 1
    27   13   35 1
    28   14   21 ar
    29   14   15 ar
    30   15   16 ar
    31   15   36 1
    32   16   17 ar
    33   16   37 1
    34   17   18 1
    35   17   19 ar
    36   19   20 1
    37   19   21 ar
    38   21   38 1
##########                 Name:     ZINC000296042552
##########          Protonation:                 none
##########               SMILES:   CC(C)(C)OC(=O)[C@H]1C[N@@H+](C[C@@H](O)c2ccc(F)cc2)C1
##########            Long Name:   NO_LONG_NAME
##########          FlexRecCode: 1
##########               Number:                 9649
##########   Ligand Source File: /nfs/db/export/3D/CE/ADMO/CEADMO.xbev.db2.gz
##########                 Rank:                    1
##########               Setnum:                    3
##########             Matchnum:                    1
##########                Cloud:                    1
##########        Electrostatic:           -42.816479
##########                 Gist:             0.000000
##########        Van der Waals:           -25.696392
##########  Ligand Polar Desolv:            17.285976
########## Ligand Apolar Desolv:            -3.803291
##########      Internal Energy:             0.000000
##########      Receptor Energy:             0.000000
########## Receptor Desolvation:             0.000000
########## Receptor Hydrophobic:             0.000000
##########         Total Energy:           -55.030186
##########        Ligand Charge:             1.000000
##########            Arbitrary:    +999.9990
##########        Ligand Energy:             0.000000

@<TRIPOS>MOLECULE
 ZINC000296042552      none
   44    45     0     0     0



@<TRIPOS>ATOM
      1 C1        -17.4553    18.8229   -23.5281 C.3        1  LIG1  -0.1900
      2 C2        -18.2034    19.7040   -22.5255 C.3        1  LIG1   0.1200
      3 C3        -17.2469    20.7539   -21.9562 C.3        1  LIG1  -0.1900
      4 C4        -19.3673    20.4034   -23.2304 C.3        1  LIG1  -0.1500
      5 O1        -18.7162    18.8801   -21.4454 O.3        1  LIG1  -0.3400
      6 C5        -17.8169    18.1944   -20.7223 C.2        1  LIG1   0.4700
      7 O2        -16.6402    18.2798   -20.9832 O.2        1  LIG1  -0.4800
      8 C6        -18.2749    17.3181   -19.5851 C.3        1  LIG1  -0.1400
      9 C7        -17.4616    16.0195   -19.4372 C.3        1  LIG1   0.0300
     10 N1        -17.5079    16.2733   -17.9802 N.4        1  LIG1  -0.4100
     11 H1        -18.3025    15.8436   -17.5308 H          1  LIG1   0.4400
     12 C8        -16.2413    15.9631   -17.3039 C.3        1  LIG1  -0.0400
     13 C9        -16.3775    16.2532   -15.8078 C.3        1  LIG1   0.1400
     14 H2        -16.2633    17.3231   -15.6334 H          1  LIG1   0.1300
     15 O3        -17.6661    15.8319   -15.3565 O.3        1  LIG1  -0.5500
     16 C10       -15.3107    15.5042   -15.0516 C.ar       1  LIG1  -0.1600
     17 C11       -15.5580    14.2228   -14.5958 C.ar       1  LIG1  -0.0800
     18 C12       -14.5803    13.5349   -13.9022 C.ar       1  LIG1  -0.1500
     19 C13       -13.3526    14.1295   -13.6644 C.ar       1  LIG1   0.1200
     20 F1        -12.3962    13.4579   -12.9869 F          1  LIG1  -0.1300
     21 C14       -13.1060    15.4128   -14.1220 C.ar       1  LIG1  -0.1500
     22 C15       -14.0836    16.0970   -14.8194 C.ar       1  LIG1  -0.0700
     23 C16       -17.6928    17.7218   -18.2185 C.3        1  LIG1   0.0200
     24 H3        -18.1367    18.0750   -23.9336 H          1  LIG1   0.0800
     25 H4        -17.0703    19.4414   -24.3387 H          1  LIG1   0.0600
     26 H5        -16.6260    18.3247   -23.0259 H          1  LIG1   0.0800
     27 H6        -17.7799    21.3815   -21.2420 H          1  LIG1   0.0800
     28 H7        -16.4177    20.2556   -21.4539 H          1  LIG1   0.0700
     29 H8        -16.8620    21.3724   -22.7670 H          1  LIG1   0.0800
     30 H9        -19.9003    21.0311   -22.5163 H          1  LIG1   0.0700
     31 H10       -18.9823    21.0218   -24.0411 H          1  LIG1   0.0700
     32 H11       -20.0486    19.6554   -23.6361 H          1  LIG1   0.0900
     33 H12       -19.3541    17.1654   -19.5744 H          1  LIG1   0.1700
     34 H13       -18.0031    15.1248   -19.7445 H          1  LIG1   0.1600
     35 H14       -16.4593    16.0783   -19.8616 H          1  LIG1   0.1600
     36 H15       -16.0002    14.9102   -17.4493 H          1  LIG1   0.1400
     37 H16       -15.4454    16.5793   -17.7226 H          1  LIG1   0.1400
     38 H17       -17.8374    14.8881   -15.4810 H          1  LIG1   0.3900
     39 H18       -16.5154    13.7591   -14.7813 H          1  LIG1   0.1300
     40 H19       -14.7739    12.5340   -13.5455 H          1  LIG1   0.1500
     41 H20       -12.1490    15.8777   -13.9368 H          1  LIG1   0.1500
     42 H21       -13.8913    17.0978   -15.1768 H          1  LIG1   0.1400
     43 H22       -16.7581    18.2786   -18.2864 H          1  LIG1   0.1700
     44 H23       -18.4189    18.1873   -17.5520 H          1  LIG1   0.1600
@<TRIPOS>BOND
     1    1    2 1
     2    1   24 1
     3    1   25 1
     4    1   26 1
     5    2    3 1
     6    2    4 1
     7    2    5 1
     8    3   27 1
     9    3   28 1
    10    3   29 1
    11    4   30 1
    12    4   31 1
    13    4   32 1
    14    5    6 1
    15    6    7 2
    16    6    8 1
    17    8   23 1
    18    8    9 1
    19    8   33 1
    20    9   10 1
    21    9   34 1
    22    9   35 1
    23   10   11 1
    24   10   12 1
    25   10   23 1
    26   12   13 1
    27   12   36 1
    28   12   37 1
    29   13   14 1
    30   13   15 1
    31   13   16 1
    32   15   38 1
    33   16   22 ar
    34   16   17 ar
    35   17   18 ar
    36   17   39 1
    37   18   19 ar
    38   18   40 1
    39   19   20 1
    40   19   21 ar
    41   21   22 ar
    42   21   41 1
    43   22   42 1
    44   23   43 1
    45   23   44 1
##########                 Name:     ZINC000124587729
##########          Protonation:                 none
##########               SMILES:   [NH3+]C[C@H]1CCCC[C@H]1NS(=O)(=O)c1cnn(-c2ccccc2)c1
##########            Long Name:   NO_LONG_NAME
##########          FlexRecCode: 1
##########               Number:                  168
##########   Ligand Source File: /nfs/db/export/3D/ED/ADRO/EDADRO.xchi.db2.gz
##########                 Rank:                    1
##########               Setnum:                    5
##########             Matchnum:                    1
##########                Cloud:                    1
##########        Electrostatic:           -49.504150
##########                 Gist:             0.000000
##########        Van der Waals:           -27.199453
##########  Ligand Polar Desolv:            23.838615
########## Ligand Apolar Desolv:            -2.093125
##########      Internal Energy:             0.000000
##########      Receptor Energy:             0.000000
########## Receptor Desolvation:             0.000000
########## Receptor Hydrophobic:             0.000000
##########         Total Energy:           -54.958115
##########        Ligand Charge:             1.000000
##########            Arbitrary:    +999.9990
##########        Ligand Energy:             0.000000

@<TRIPOS>MOLECULE
 ZINC000124587729      none
   46    48     0     0     0



@<TRIPOS>ATOM
      1 N1        -20.1241    16.0849   -18.5677 N.4        1  LIG1  -0.6400
      2 H1        -19.4207    16.0300   -17.8463 H          1  LIG1   0.4400
      3 H2        -20.1472    15.2169   -19.0816 H          1  LIG1   0.4300
      4 H3        -21.0259    16.2502   -18.1462 H          1  LIG1   0.4400
      5 C1        -19.8018    17.1876   -19.4831 C.3        1  LIG1  -0.0100
      6 C2        -18.4345    16.9369   -20.1220 C.3        1  LIG1  -0.1200
      7 H4        -18.4593    15.9992   -20.6772 H          1  LIG1   0.1100
      8 C3        -18.0988    18.0855   -21.0755 C.3        1  LIG1  -0.1300
      9 C4        -16.7312    17.8347   -21.7144 C.3        1  LIG1  -0.1200
     10 C5        -15.6647    17.7517   -20.6205 C.3        1  LIG1  -0.1200
     11 C6        -16.0005    16.6032   -19.6670 C.3        1  LIG1  -0.1400
     12 C7        -17.3680    16.8539   -19.0281 C.3        1  LIG1   0.1600
     13 H5        -17.6071    16.0358   -18.3489 H          1  LIG1   0.1100
     14 N2        -17.3347    18.1142   -18.2819 N.pl3      1  LIG1  -1.1200
     15 S1        -17.6380    18.1208   -16.6539 S.o2       1  LIG1   2.7300
     16 O1        -17.3833    19.4444   -16.2038 O.2        1  LIG1  -0.9500
     17 O2        -18.8865    17.4661   -16.4758 O.2        1  LIG1  -0.9600
     18 C8        -16.4248    17.0943   -15.8931 C.2        1  LIG1  -0.8100
     19 C9        -16.5323    15.7633   -15.6739 C.2        1  LIG1   0.1800
     20 N3        -15.3934    15.3521   -15.0720 N.pl3      1  LIG1  -0.3000
     21 C10       -15.0976    14.0410   -14.6737 C.ar       1  LIG1   0.1300
     22 C11       -14.2764    13.8157   -13.5771 C.ar       1  LIG1  -0.1300
     23 C12       -13.9867    12.5228   -13.1872 C.ar       1  LIG1  -0.0900
     24 C13       -14.5133    11.4534   -13.8879 C.ar       1  LIG1  -0.1100
     25 C14       -15.3316    11.6746   -14.9805 C.ar       1  LIG1  -0.0900
     26 C15       -15.6299    12.9652   -15.3715 C.ar       1  LIG1  -0.1100
     27 N4        -14.5611    16.4684   -14.9176 N.2        1  LIG1  -0.2700
     28 C16       -15.1775    17.5104   -15.4145 C.2        1  LIG1   0.1400
     29 H6        -20.5618    17.2468   -20.2623 H          1  LIG1   0.1400
     30 H7        -19.7770    18.1253   -18.9278 H          1  LIG1   0.1400
     31 H8        -18.8586    18.1447   -21.8548 H          1  LIG1   0.0600
     32 H9        -18.0740    19.0232   -20.5203 H          1  LIG1   0.0800
     33 H10       -16.7560    16.8970   -22.2696 H          1  LIG1   0.0700
     34 H11       -16.4922    18.6530   -22.3936 H          1  LIG1   0.0800
     35 H12       -14.6906    17.5732   -21.0757 H          1  LIG1   0.0700
     36 H13       -15.6400    18.6895   -20.0653 H          1  LIG1   0.0700
     37 H14       -16.0252    15.6656   -20.2223 H          1  LIG1   0.0800
     38 H15       -15.2408    16.5441   -18.8877 H          1  LIG1   0.0800
     39 H16       -17.1350    18.9449   -18.7414 H          1  LIG1   0.4200
     40 H17       -17.3764    15.1413   -15.9327 H          1  LIG1   0.1900
     41 H18       -13.8642    14.6505   -13.0299 H          1  LIG1   0.1300
     42 H19       -13.3480    12.3469   -12.3343 H          1  LIG1   0.1400
     43 H20       -14.2849    10.4432   -13.5815 H          1  LIG1   0.1400
     44 H21       -15.7415    10.8373   -15.5258 H          1  LIG1   0.1400
     45 H22       -16.2692    13.1374   -16.2248 H          1  LIG1   0.1400
     46 H23       -14.7924    18.5189   -15.4444 H          1  LIG1   0.2000
@<TRIPOS>BOND
     1    1    2 1
     2    1    3 1
     3    1    4 1
     4    1    5 1
     5    5    6 1
     6    5   29 1
     7    5   30 1
     8    6    7 1
     9    6   12 1
    10    6    8 1
    11    8    9 1
    12    8   31 1
    13    8   32 1
    14    9   10 1
    15    9   33 1
    16    9   34 1
    17   10   11 1
    18   10   35 1
    19   10   36 1
    20   11   12 1
    21   11   37 1
    22   11   38 1
    23   12   13 1
    24   12   14 1
    25   14   15 1
    26   14   39 1
    27   15   16 2
    28   15   17 2
    29   15   18 1
    30   18   28 1
    31   18   19 2
    32   19   20 1
    33   19   40 1
    34   20   21 1
    35   20   27 1
    36   21   26 ar
    37   21   22 ar
    38   22   23 ar
    39   22   41 1
    40   23   24 ar
    41   23   42 1
    42   24   25 ar
    43   24   43 1
    44   25   26 ar
    45   25   44 1
    46   26   45 1
    47   27   28 2
    48   28   46 1
##########                 Name:     ZINC000341990055
##########          Protonation:                 none
##########               SMILES:   CCOC1=CC=CC=C1NC(=O)[C@@H](C)[N@H+]1CC[C@@]2(C1)CCCOC2
##########            Long Name:   NO_LONG_NAME
##########          FlexRecCode: 1
##########               Number:                14777
##########   Ligand Source File: /nfs/db/export/3D/EF/ADMO/EFADMO.xbeg.db2.gz
##########                 Rank:                    1
##########               Setnum:                   55
##########             Matchnum:                    1
##########                Cloud:                    1
##########        Electrostatic:           -40.387146
##########                 Gist:             0.000000
##########        Van der Waals:           -22.715895
##########  Ligand Polar Desolv:            12.768274
########## Ligand Apolar Desolv:            -4.650360
##########      Internal Energy:             0.000000
##########      Receptor Energy:             0.000000
########## Receptor Desolvation:             0.000000
########## Receptor Hydrophobic:             0.000000
##########         Total Energy:           -54.985130
##########        Ligand Charge:             1.000000
##########            Arbitrary:    +999.9990
##########        Ligand Energy:             0.000000

@<TRIPOS>MOLECULE
 ZINC000341990055      none
   53    55     0     0     0



@<TRIPOS>ATOM
      1 C1        -16.8036    12.1898   -14.4761 C.3        1  LIG1  -0.1500
      2 C2        -15.8252    11.9421   -15.6259 C.3        1  LIG1   0.0600
      3 O1        -15.6147    13.1602   -16.3430 O.3        1  LIG1  -0.3200
      4 C3        -15.0998    14.2068   -15.6441 C.ar       1  LIG1   0.1200
      5 C4        -14.2539    13.9766   -14.5718 C.ar       1  LIG1  -0.1900
      6 C5        -13.7314    15.0421   -13.8618 C.ar       1  LIG1  -0.0800
      7 C6        -14.0505    16.3388   -14.2193 C.ar       1  LIG1  -0.1400
      8 C7        -14.8942    16.5769   -15.2883 C.ar       1  LIG1  -0.0900
      9 C8        -15.4173    15.5137   -16.0087 C.ar       1  LIG1   0.0900
     10 N1        -16.2722    15.7525   -17.0930 N.am       1  LIG1  -0.6300
     11 C9        -17.0516    16.8520   -17.1070 C.2        1  LIG1   0.5000
     12 O2        -17.0131    17.6347   -16.1812 O.2        1  LIG1  -0.5100
     13 C10       -17.9710    17.1089   -18.2731 C.3        1  LIG1   0.0100
     14 H1        -18.1001    18.1832   -18.4042 H          1  LIG1   0.1600
     15 C11       -17.3637    16.5096   -19.5431 C.3        1  LIG1  -0.1800
     16 N2        -19.2763    16.4869   -18.0139 N.4        1  LIG1  -0.3800
     17 H2        -19.1694    15.4912   -17.8907 H          1  LIG1   0.4300
     18 C12       -19.8995    17.0883   -16.8067 C.3        1  LIG1  -0.0100
     19 C13       -21.4079    16.7834   -16.9949 C.3        1  LIG1  -0.1300
     20 C14       -21.6019    16.9439   -18.5156 C.3        1  LIG1  -0.1100
     21 C15       -20.2057    16.7662   -19.1316 C.3        1  LIG1   0.0000
     22 C16       -22.5502    15.8678   -19.0374 C.3        1  LIG1  -0.1200
     23 C17       -22.7794    16.0869   -20.5370 C.3        1  LIG1  -0.1600
     24 C18       -23.3057    17.5071   -20.7608 C.3        1  LIG1   0.0500
     25 O3        -22.3695    18.4514   -20.2373 O.3        1  LIG1  -0.3700
     26 C19       -22.1481    18.3332   -18.8294 C.3        1  LIG1   0.0700
     27 H3        -16.9641    11.2607   -13.9290 H          1  LIG1   0.0800
     28 H4        -16.3905    12.9410   -13.8029 H          1  LIG1   0.0700
     29 H5        -17.7532    12.5441   -14.8769 H          1  LIG1   0.0700
     30 H6        -14.8754    11.5879   -15.2249 H          1  LIG1   0.0700
     31 H7        -16.2382    11.1910   -16.2990 H          1  LIG1   0.0700
     32 H8        -14.0026    12.9648   -14.2899 H          1  LIG1   0.1400
     33 H9        -13.0725    14.8608   -13.0254 H          1  LIG1   0.1300
     34 H10       -13.6401    17.1678   -13.6619 H          1  LIG1   0.1300
     35 H11       -15.1422    17.5910   -15.5651 H          1  LIG1   0.1500
     36 H12       -16.3029    15.1266   -17.8333 H          1  LIG1   0.4200
     37 H13       -18.0287    16.6954   -20.3866 H          1  LIG1   0.1100
     38 H14       -16.3951    16.9710   -19.7355 H          1  LIG1   0.0900
     39 H15       -17.2346    15.4352   -19.4121 H          1  LIG1   0.1000
     40 H16       -19.5213    16.6132   -15.9015 H          1  LIG1   0.1500
     41 H17       -19.7252    18.1639   -16.7792 H          1  LIG1   0.1300
     42 H18       -21.6380    15.7650   -16.6817 H          1  LIG1   0.1100
     43 H19       -22.0184    17.5033   -16.4498 H          1  LIG1   0.1200
     44 H20       -19.9058    17.6799   -19.6447 H          1  LIG1   0.1400
     45 H21       -20.2110    15.9304   -19.8313 H          1  LIG1   0.1400
     46 H22       -22.1093    14.8840   -18.8759 H          1  LIG1   0.0800
     47 H23       -23.5017    15.9332   -18.5097 H          1  LIG1   0.0900
     48 H24       -21.8387    15.9583   -21.0722 H          1  LIG1   0.0700
     49 H25       -23.5100    15.3657   -20.9033 H          1  LIG1   0.0900
     50 H26       -23.4385    17.6812   -21.8286 H          1  LIG1   0.1000
     51 H27       -24.2625    17.6243   -20.2521 H          1  LIG1   0.0600
     52 H28       -23.0891    18.4817   -18.2998 H          1  LIG1   0.0700
     53 H29       -21.4286    19.0871   -18.5101 H          1  LIG1   0.1000
@<TRIPOS>BOND
     1    1    2 1
     2    1   27 1
     3    1   28 1
     4    1   29 1
     5    2    3 1
     6    2   30 1
     7    2   31 1
     8    3    4 1
     9    4    9 ar
    10    4    5 ar
    11    5    6 ar
    12    5   32 1
    13    6    7 ar
    14    6   33 1
    15    7    8 ar
    16    7   34 1
    17    8    9 ar
    18    8   35 1
    19    9   10 1
    20   10   11 am
    21   10   36 1
    22   11   12 2
    23   11   13 1
    24   13   14 1
    25   13   15 1
    26   13   16 1
    27   15   37 1
    28   15   38 1
    29   15   39 1
    30   16   17 1
    31   16   21 1
    32   16   18 1
    33   18   19 1
    34   18   40 1
    35   18   41 1
    36   19   20 1
    37   19   42 1
    38   19   43 1
    39   20   26 1
    40   20   21 1
    41   20   22 1
    42   21   44 1
    43   21   45 1
    44   22   23 1
    45   22   46 1
    46   22   47 1
    47   23   24 1
    48   23   48 1
    49   23   49 1
    50   24   25 1
    51   24   50 1
    52   24   51 1
    53   25   26 1
    54   26   52 1
    55   26   53 1
##########                 Name:     ZINC000342425144
##########          Protonation:                 none
##########               SMILES:   CC(=O)N1C[C@@H]2CCC[C@@H]([NH2+]CC3=CC=C(C)S3)[C@@H]2C1
##########            Long Name:   NO_LONG_NAME
##########          FlexRecCode: 1
##########               Number:                  246
##########   Ligand Source File: /nfs/db/export/3D/CF/ADRO/CFADRO.xbec.db2.gz
##########                 Rank:                    1
##########               Setnum:                   19
##########             Matchnum:                    1
##########                Cloud:                    1
##########        Electrostatic:           -43.495453
##########                 Gist:             0.000000
##########        Van der Waals:           -23.967428
##########  Ligand Polar Desolv:            16.788013
########## Ligand Apolar Desolv:            -4.311919
##########      Internal Energy:             0.000000
##########      Receptor Energy:             0.000000
########## Receptor Desolvation:             0.000000
########## Receptor Hydrophobic:             0.000000
##########         Total Energy:           -54.986786
##########        Ligand Charge:             1.000000
##########            Arbitrary:    +999.9990
##########        Ligand Energy:             0.000000

@<TRIPOS>MOLECULE
 ZINC000342425144      none
   45    47     0     0     0



@<TRIPOS>ATOM
      1 C1        -16.5379    19.6604   -23.1291 C.3        1  LIG1  -0.1700
      2 C2        -16.0316    18.9437   -21.9038 C.2        1  LIG1   0.5300
      3 O1        -14.8719    19.0606   -21.5687 O.2        1  LIG1  -0.5300
      4 N1        -16.8677    18.1730   -21.1804 N.am       1  LIG1  -0.6200
      5 C3        -18.2883    17.9432   -21.4808 C.3        1  LIG1   0.1000
      6 C4        -18.6947    16.6854   -20.6865 C.3        1  LIG1  -0.0800
      7 H1        -18.4836    15.8080   -21.2978 H          1  LIG1   0.1000
      8 C5        -20.1639    16.7063   -20.3675 C.3        1  LIG1  -0.1200
      9 C6        -20.5135    17.6463   -19.2341 C.3        1  LIG1  -0.1100
     10 C7        -19.7177    17.3407   -17.9864 C.3        1  LIG1  -0.1400
     11 C8        -18.2372    17.2329   -18.2042 C.3        1  LIG1   0.0500
     12 H2        -17.8132    18.2315   -18.0990 H          1  LIG1   0.1400
     13 N2        -17.6861    16.4036   -17.1241 N.4        1  LIG1  -0.5100
     14 H3        -17.8791    16.8384   -16.2344 H          1  LIG1   0.4300
     15 H4        -18.1121    15.4894   -17.1513 H          1  LIG1   0.4300
     16 C9        -16.2336    16.2723   -17.3002 C.3        1  LIG1   0.0800
     17 C10       -15.6681    15.4216   -16.1922 C.2        1  LIG1  -0.3000
     18 C11       -14.5677    15.7021   -15.4925 C.2        1  LIG1  -0.0600
     19 C12       -14.2410    14.7715   -14.5214 C.2        1  LIG1  -0.1600
     20 C13       -15.0760    13.7352   -14.4323 C.2        1  LIG1  -0.1200
     21 C14       -14.9415    12.5923   -13.4593 C.3        1  LIG1  -0.1000
     22 S1        -16.3624    13.9107   -15.6189 S.3        1  LIG1   0.1400
     23 C15       -17.7636    16.6764   -19.4934 C.3        1  LIG1  -0.1200
     24 H5        -17.4861    15.6355   -19.3276 H          1  LIG1   0.1000
     25 C16       -16.5023    17.4244   -19.9708 C.3        1  LIG1   0.1100
     26 H6        -17.5953    19.4365   -23.2700 H          1  LIG1   0.1000
     27 H7        -16.4078    20.7350   -23.0012 H          1  LIG1   0.0900
     28 H8        -15.9767    19.3278   -24.0024 H          1  LIG1   0.0900
     29 H9        -18.8827    18.7984   -21.1593 H          1  LIG1   0.0800
     30 H10       -18.4229    17.7721   -22.5489 H          1  LIG1   0.0900
     31 H11       -20.7115    17.0132   -21.2586 H          1  LIG1   0.0900
     32 H12       -20.4779    15.6984   -20.0962 H          1  LIG1   0.0800
     33 H13       -20.3068    18.6704   -19.5453 H          1  LIG1   0.0800
     34 H14       -21.5760    17.5524   -19.0097 H          1  LIG1   0.0900
     35 H15       -19.9031    18.1288   -17.2566 H          1  LIG1   0.1000
     36 H16       -20.0753    16.3987   -17.5705 H          1  LIG1   0.0800
     37 H17       -16.0251    15.8026   -18.2615 H          1  LIG1   0.1500
     38 H18       -15.7733    17.2599   -17.2709 H          1  LIG1   0.1400
     39 H19       -13.9762    16.5882   -15.6706 H          1  LIG1   0.1500
     40 H20       -13.3753    14.8764   -13.8841 H          1  LIG1   0.1500
     41 H21       -15.7611    11.8894   -13.6090 H          1  LIG1   0.0900
     42 H22       -13.9919    12.0835   -13.6253 H          1  LIG1   0.0800
     43 H23       -14.9744    12.9771   -12.4401 H          1  LIG1   0.0900
     44 H24       -15.7157    16.7090   -20.2103 H          1  LIG1   0.0800
     45 H25       -16.1601    18.1073   -19.1932 H          1  LIG1   0.0700
@<TRIPOS>BOND
     1    1    2 1
     2    1   26 1
     3    1   27 1
     4    1   28 1
     5    2    3 2
     6    2    4 am
     7    4   25 1
     8    4    5 1
     9    5    6 1
    10    5   29 1
    11    5   30 1
    12    6    7 1
    13    6   23 1
    14    6    8 1
    15    8    9 1
    16    8   31 1
    17    8   32 1
    18    9   10 1
    19    9   33 1
    20    9   34 1
    21   10   11 1
    22   10   35 1
    23   10   36 1
    24   11   12 1
    25   11   13 1
    26   11   23 1
    27   13   14 1
    28   13   15 1
    29   13   16 1
    30   16   17 1
    31   16   37 1
    32   16   38 1
    33   17   22 1
    34   17   18 2
    35   18   19 1
    36   18   39 1
    37   19   20 2
    38   19   40 1
    39   20   21 1
    40   20   22 1
    41   21   41 1
    42   21   42 1
    43   21   43 1
    44   23   24 1
    45   23   25 1
    46   25   44 1
    47   25   45 1
##########                 Name:     ZINC000639930891
##########          Protonation:                 none
##########               SMILES:   CN1CCC[C@H]1C[N@@H+]1C[C@@H](O)[C@H](OC2=CC=CC=C2)C1
##########            Long Name:   NO_LONG_NAME
##########          FlexRecCode: 1
##########               Number:                 7301
##########   Ligand Source File: /nfs/db/export/3D/CD/ADMO/CDADMO.xbeb.db2.gz
##########                 Rank:                    1
##########               Setnum:                  116
##########             Matchnum:                    1
##########                Cloud:                    1
##########        Electrostatic:           -41.258835
##########                 Gist:             0.000000
##########        Van der Waals:           -25.646936
##########  Ligand Polar Desolv:            13.961698
########## Ligand Apolar Desolv:            -2.024047
##########      Internal Energy:             0.000000
##########      Receptor Energy:             0.000000
########## Receptor Desolvation:             0.000000
########## Receptor Hydrophobic:             0.000000
##########         Total Energy:           -54.968117
##########        Ligand Charge:             1.000000
##########            Arbitrary:    +999.9990
##########        Ligand Energy:             0.000000

@<TRIPOS>MOLECULE
 ZINC000639930891      none
   45    47     0     0     0



@<TRIPOS>ATOM
      1 C1        -15.7465    18.7310   -21.2812 C.3        1  LIG1   0.0000
      2 N1        -17.0986    18.1594   -21.2245 N.3        1  LIG1  -0.5000
      3 C2        -18.1122    19.1429   -21.6849 C.3        1  LIG1   0.0300
      4 C3        -19.4420    18.6427   -21.0810 C.3        1  LIG1  -0.1200
      5 C4        -19.0334    17.7980   -19.8566 C.3        1  LIG1  -0.1400
      6 C5        -17.4913    17.8589   -19.8236 C.3        1  LIG1   0.0300
      7 H1        -17.1565    18.6532   -19.1563 H          1  LIG1   0.0700
      8 C6        -16.9133    16.5131   -19.3816 C.3        1  LIG1   0.0100
      9 N2        -17.3151    16.2390   -17.9955 N.4        1  LIG1  -0.3900
     10 H2        -18.2597    15.8856   -17.9651 H          1  LIG1   0.4300
     11 C7        -17.1927    17.4660   -17.1669 C.3        1  LIG1  -0.0400
     12 C8        -17.0838    16.9472   -15.7170 C.3        1  LIG1   0.0600
     13 H3        -16.3870    17.5612   -15.1464 H          1  LIG1   0.1200
     14 O1        -18.3692    16.9460   -15.0924 O.3        1  LIG1  -0.5500
     15 C9        -16.5470    15.5067   -15.8461 C.3        1  LIG1   0.0700
     16 H4        -17.2643    14.7972   -15.4336 H          1  LIG1   0.1200
     17 O2        -15.2892    15.3842   -15.1791 O.3        1  LIG1  -0.2900
     18 C10       -14.9849    14.1680   -14.6546 C.ar       1  LIG1   0.1000
     19 C11       -15.4788    13.0136   -15.2445 C.ar       1  LIG1  -0.1400
     20 C12       -15.1675    11.7785   -14.7097 C.ar       1  LIG1  -0.0800
     21 C13       -14.3649    11.6922   -13.5872 C.ar       1  LIG1  -0.1400
     22 C14       -13.8718    12.8412   -12.9971 C.ar       1  LIG1  -0.0800
     23 C15       -14.1751    14.0785   -13.5317 C.ar       1  LIG1  -0.2000
     24 C16       -16.3786    15.2740   -17.3640 C.3        1  LIG1   0.0100
     25 H5        -15.4842    18.9416   -22.3179 H          1  LIG1   0.0700
     26 H6        -15.7185    19.6555   -20.7044 H          1  LIG1   0.0900
     27 H7        -15.0337    18.0202   -20.8631 H          1  LIG1   0.0400
     28 H8        -17.8745    20.1381   -21.3088 H          1  LIG1   0.0600
     29 H9        -18.1679    19.1503   -22.7734 H          1  LIG1   0.1000
     30 H10       -20.0579    19.4866   -20.7704 H          1  LIG1   0.0800
     31 H11       -19.9781    18.0275   -21.8036 H          1  LIG1   0.0800
     32 H12       -19.4490    18.2273   -18.9449 H          1  LIG1   0.0800
     33 H13       -19.3692    16.7681   -19.9782 H          1  LIG1   0.0800
     34 H14       -17.2912    15.7242   -20.0320 H          1  LIG1   0.1400
     35 H15       -15.8257    16.5462   -19.4449 H          1  LIG1   0.1300
     36 H16       -16.2954    18.0215   -17.4403 H          1  LIG1   0.1500
     37 H17       -18.0777    18.0919   -17.2812 H          1  LIG1   0.1400
     38 H18       -19.0225    16.3895   -15.5382 H          1  LIG1   0.4000
     39 H19       -16.1064    13.0804   -16.1209 H          1  LIG1   0.1300
     40 H20       -15.5519    10.8795   -15.1685 H          1  LIG1   0.1400
     41 H21       -14.1231    10.7256   -13.1704 H          1  LIG1   0.1300
     42 H22       -13.2454    12.7713   -12.1201 H          1  LIG1   0.1300
     43 H23       -13.7896    14.9757   -13.0704 H          1  LIG1   0.1300
     44 H24       -16.6496    14.2509   -17.6242 H          1  LIG1   0.1500
     45 H25       -15.3541    15.4864   -17.6698 H          1  LIG1   0.1500
@<TRIPOS>BOND
     1    1    2 1
     2    1   25 1
     3    1   26 1
     4    1   27 1
     5    2    6 1
     6    2    3 1
     7    3    4 1
     8    3   28 1
     9    3   29 1
    10    4    5 1
    11    4   30 1
    12    4   31 1
    13    5    6 1
    14    5   32 1
    15    5   33 1
    16    6    7 1
    17    6    8 1
    18    8    9 1
    19    8   34 1
    20    8   35 1
    21    9   10 1
    22    9   24 1
    23    9   11 1
    24   11   12 1
    25   11   36 1
    26   11   37 1
    27   12   13 1
    28   12   14 1
    29   12   15 1
    30   14   38 1
    31   15   16 1
    32   15   17 1
    33   15   24 1
    34   17   18 1
    35   18   23 ar
    36   18   19 ar
    37   19   20 ar
    38   19   39 1
    39   20   21 ar
    40   20   40 1
    41   21   22 ar
    42   21   41 1
    43   22   23 ar
    44   22   42 1
    45   23   43 1
    46   24   44 1
    47   24   45 1
##########                 Name:     ZINC000548882560
##########          Protonation:                 none
##########               SMILES:   C1=CC=C([C@@H]2C[C@H]([NH2+][C@H]3CCC[C@H]4C[C@H]43)CCO2)C=C1
##########            Long Name:   NO_LONG_NAME
##########          FlexRecCode: 1
##########               Number:                 3854
##########   Ligand Source File: /nfs/db/export/3D/CH/ADRO/CHADRO.xdv.db2.gz
##########                 Rank:                    1
##########               Setnum:                    3
##########             Matchnum:                    1
##########                Cloud:                    1
##########        Electrostatic:           -34.055347
##########                 Gist:             0.000000
##########        Van der Waals:           -26.671177
##########  Ligand Polar Desolv:            11.402502
########## Ligand Apolar Desolv:            -5.632024
##########      Internal Energy:             0.000000
##########      Receptor Energy:             0.000000
########## Receptor Desolvation:             0.000000
########## Receptor Hydrophobic:             0.000000
##########         Total Energy:           -54.956047
##########        Ligand Charge:             1.000000
##########            Arbitrary:    +999.9990
##########        Ligand Energy:             0.000000

@<TRIPOS>MOLECULE
 ZINC000548882560      none
   46    49     0     0     0



@<TRIPOS>ATOM
      1 C1        -13.2960    14.2751   -13.7250 C.ar       1  LIG1  -0.1100
      2 C2        -14.5851    13.9154   -14.0710 C.ar       1  LIG1  -0.1200
      3 C3        -15.3928    14.8079   -14.7508 C.ar       1  LIG1  -0.1100
      4 C4        -14.9115    16.0601   -15.0842 C.ar       1  LIG1  -0.1000
      5 C5        -15.7918    17.0328   -15.8257 C.3        1  LIG1   0.1500
      6 H1        -16.3491    17.6373   -15.1099 H          1  LIG1   0.0800
      7 C6        -16.7712    16.2607   -16.7135 C.3        1  LIG1  -0.1700
      8 C7        -17.6214    17.2563   -17.5087 C.3        1  LIG1   0.0200
      9 H2        -18.2153    17.8589   -16.8213 H          1  LIG1   0.1400
     10 N1        -18.5138    16.5246   -18.4175 N.4        1  LIG1  -0.5000
     11 H3        -17.9995    16.2418   -19.2383 H          1  LIG1   0.4300
     12 H4        -18.8749    15.7072   -17.9487 H          1  LIG1   0.4300
     13 C8        -19.6292    17.3943   -18.8141 C.3        1  LIG1   0.0600
     14 H5        -19.2546    18.4033   -18.9868 H          1  LIG1   0.1400
     15 C9        -20.2519    16.8597   -20.1037 C.3        1  LIG1  -0.1500
     16 C10       -21.4866    17.7049   -20.4373 C.3        1  LIG1  -0.1100
     17 C11       -22.6143    17.3187   -19.4802 C.3        1  LIG1  -0.1000
     18 C12       -22.1443    17.4498   -18.0331 C.3        1  LIG1  -0.1100
     19 H6        -22.7803    18.0563   -17.3883 H          1  LIG1   0.1200
     20 C13       -21.5100    16.1949   -17.4138 C.3        1  LIG1  -0.1800
     21 C14       -20.6617    17.4265   -17.6981 C.3        1  LIG1  -0.2000
     22 H7        -20.3608    18.0090   -16.8273 H          1  LIG1   0.1200
     23 C15       -16.6954    18.1675   -18.3201 C.3        1  LIG1  -0.1800
     24 C16       -15.7190    18.8661   -17.3703 C.3        1  LIG1   0.0600
     25 O1        -14.9820    17.8837   -16.6395 O.3        1  LIG1  -0.3600
     26 C17       -13.6228    16.4202   -14.7368 C.ar       1  LIG1  -0.0900
     27 C18       -12.8145    15.5272   -14.0587 C.ar       1  LIG1  -0.1200
     28 H8        -12.6665    13.5794   -13.1899 H          1  LIG1   0.1300
     29 H9        -14.9611    12.9370   -13.8106 H          1  LIG1   0.1300
     30 H10       -16.3996    14.5266   -15.0218 H          1  LIG1   0.1200
     31 H11       -16.2149    15.6250   -17.4024 H          1  LIG1   0.1000
     32 H12       -17.4194    15.6444   -16.0905 H          1  LIG1   0.1000
     33 H13       -19.5289    16.9314   -20.9164 H          1  LIG1   0.0900
     34 H14       -20.5471    15.8199   -19.9640 H          1  LIG1   0.0900
     35 H15       -21.2500    18.7620   -20.3164 H          1  LIG1   0.0800
     36 H16       -21.7960    17.5115   -21.4644 H          1  LIG1   0.0900
     37 H17       -23.4681    17.9762   -19.6438 H          1  LIG1   0.0900
     38 H18       -22.9131    16.2879   -19.6710 H          1  LIG1   0.0800
     39 H19       -21.7444    15.9733   -16.3725 H          1  LIG1   0.1100
     40 H20       -21.3725    15.3283   -18.0605 H          1  LIG1   0.1000
     41 H21       -16.1377    17.5705   -19.0416 H          1  LIG1   0.1000
     42 H22       -17.2895    18.9149   -18.8462 H          1  LIG1   0.1000
     43 H23       -15.0297    19.4832   -17.9466 H          1  LIG1   0.1200
     44 H24       -16.2752    19.4946   -16.6748 H          1  LIG1   0.0700
     45 H25       -13.2468    17.3987   -14.9973 H          1  LIG1   0.1300
     46 H26       -11.8076    15.8084   -13.7877 H          1  LIG1   0.1300
@<TRIPOS>BOND
     1    1   27 ar
     2    1    2 ar
     3    1   28 1
     4    2    3 ar
     5    2   29 1
     6    3    4 ar
     7    3   30 1
     8    4    5 1
     9    4   26 ar
    10    5    6 1
    11    5   25 1
    12    5    7 1
    13    7    8 1
    14    7   31 1
    15    7   32 1
    16    8    9 1
    17    8   10 1
    18    8   23 1
    19   10   11 1
    20   10   12 1
    21   10   13 1
    22   13   14 1
    23   13   21 1
    24   13   15 1
    25   15   16 1
    26   15   33 1
    27   15   34 1
    28   16   17 1
    29   16   35 1
    30   16   36 1
    31   17   18 1
    32   17   37 1
    33   17   38 1
    34   18   19 1
    35   18   21 1
    36   18   20 1
    37   20   21 1
    38   20   39 1
    39   20   40 1
    40   21   22 1
    41   23   24 1
    42   23   41 1
    43   23   42 1
    44   24   25 1
    45   24   43 1
    46   24   44 1
    47   26   27 ar
    48   26   45 1
    49   27   46 1
##########                 Name:     ZINC000328646605
##########          Protonation:                 none
##########               SMILES:   C[N@H+](CC1=NC=CC(N)=N1)[C@@H]1CCCN(C2=CN=C(C#N)C=N2)CC1
##########            Long Name:   NO_LONG_NAME
##########          FlexRecCode: 1
##########               Number:                 8807
##########   Ligand Source File: /nfs/db/export/3D/ED/AARO/EDAARO.xaz.db2.gz
##########                 Rank:                    1
##########               Setnum:                   22
##########             Matchnum:                    1
##########                Cloud:                    1
##########        Electrostatic:           -41.044579
##########                 Gist:             0.000000
##########        Van der Waals:           -27.973555
##########  Ligand Polar Desolv:            16.564314
########## Ligand Apolar Desolv:            -2.515159
##########      Internal Energy:             0.000000
##########      Receptor Energy:             0.000000
########## Receptor Desolvation:             0.000000
########## Receptor Hydrophobic:             0.000000
##########         Total Energy:           -54.968979
##########        Ligand Charge:             1.000000
##########            Arbitrary:    +999.9990
##########        Ligand Energy:             0.000000

@<TRIPOS>MOLECULE
 ZINC000328646605      none
   48    50     0     0     0



@<TRIPOS>ATOM
      1 C1        -16.3400    14.7435   -18.7720 C.3        1  LIG1  -0.0500
      2 N1        -16.9474    15.5201   -17.6830 N.4        1  LIG1  -0.3800
      3 H1        -17.7299    15.0098   -17.3018 H          1  LIG1   0.4300
      4 C2        -15.9503    15.7471   -16.6282 C.3        1  LIG1   0.0700
      5 C3        -15.8353    14.5125   -15.7716 C.ar       1  LIG1   0.3000
      6 N2        -16.5804    13.4638   -16.0564 N.ar       1  LIG1  -0.5400
      7 C4        -16.5098    12.3578   -15.3287 C.ar       1  LIG1   0.1800
      8 C5        -15.6401    12.3108   -14.2574 C.ar       1  LIG1  -0.2600
      9 C6        -14.8647    13.4395   -13.9829 C.ar       1  LIG1   0.4500
     10 N3        -13.9769    13.4420   -12.9194 N.pl3      1  LIG1  -0.8200
     11 N4        -14.9884    14.5099   -14.7620 N.ar       1  LIG1  -0.5700
     12 C7        -17.4123    16.8127   -18.2035 C.3        1  LIG1   0.0400
     13 H2        -17.8613    17.3826   -17.3901 H          1  LIG1   0.1400
     14 C8        -18.4792    16.5630   -19.2930 C.3        1  LIG1  -0.1400
     15 C9        -19.2585    17.8324   -19.5111 C.3        1  LIG1  -0.1200
     16 C10       -18.6676    18.7151   -20.6250 C.3        1  LIG1   0.0500
     17 N5        -17.1913    18.8012   -20.5835 N.pl3      1  LIG1  -0.4800
     18 C11       -16.7288    19.8060   -21.4179 C.ar       1  LIG1   0.2900
     19 C12       -15.4739    19.6901   -22.0210 C.ar       1  LIG1   0.0600
     20 N6        -15.0336    20.6435   -22.8140 N.ar       1  LIG1  -0.3800
     21 C13       -15.7852    21.7201   -23.0422 C.ar       1  LIG1   0.1200
     22 C14       -15.3069    22.7577   -23.9056 C.1        1  LIG1   0.2600
     23 N7        -14.9275    23.5809   -24.5904 N.1        1  LIG1  -0.3600
     24 C15       -17.0386    21.8356   -22.4397 C.ar       1  LIG1   0.1400
     25 N8        -17.4808    20.8759   -21.6485 N.ar       1  LIG1  -0.4800
     26 C16       -16.6573    18.9488   -19.2511 C.3        1  LIG1   0.0600
     27 C17       -16.2703    17.5527   -18.7292 C.3        1  LIG1  -0.1600
     28 H3        -15.4946    15.2947   -19.1837 H          1  LIG1   0.1200
     29 H4        -15.9949    13.7844   -18.3856 H          1  LIG1   0.1300
     30 H5        -17.0798    14.5751   -19.5545 H          1  LIG1   0.1300
     31 H6        -14.9839    15.9653   -17.0828 H          1  LIG1   0.1500
     32 H7        -16.2601    16.5901   -16.0108 H          1  LIG1   0.1600
     33 H8        -17.1254    11.5041   -15.5708 H          1  LIG1   0.1800
     34 H9        -15.5616    11.4235   -13.6467 H          1  LIG1   0.1600
     35 H10       -13.8900    12.6555   -12.3584 H          1  LIG1   0.4200
     36 H11       -13.4422    14.2302   -12.7358 H          1  LIG1   0.4100
     37 H12       -17.9905    16.2704   -20.2224 H          1  LIG1   0.1000
     38 H13       -19.1543    15.7712   -18.9683 H          1  LIG1   0.0900
     39 H14       -20.2840    17.5738   -19.7748 H          1  LIG1   0.1000
     40 H15       -19.2701    18.4012   -18.5815 H          1  LIG1   0.0700
     41 H16       -18.9672    18.3070   -21.5904 H          1  LIG1   0.1000
     42 H17       -19.0793    19.7199   -20.5303 H          1  LIG1   0.0600
     43 H18       -14.8645    18.8179   -21.8358 H          1  LIG1   0.1800
     44 H19       -17.6484    22.7078   -22.6238 H          1  LIG1   0.1900
     45 H20       -15.7754    19.5888   -19.2776 H          1  LIG1   0.1200
     46 H21       -17.4121    19.3891   -18.5995 H          1  LIG1   0.0700
     47 H22       -15.5308    17.6656   -17.9364 H          1  LIG1   0.1000
     48 H23       -15.8250    16.9829   -19.5447 H          1  LIG1   0.1000
@<TRIPOS>BOND
     1    1    2 1
     2    1   28 1
     3    1   29 1
     4    1   30 1
     5    2    3 1
     6    2    4 1
     7    2   12 1
     8    4    5 1
     9    4   31 1
    10    4   32 1
    11    5   11 ar
    12    5    6 ar
    13    6    7 ar
    14    7    8 ar
    15    7   33 1
    16    8    9 ar
    17    8   34 1
    18    9   10 1
    19    9   11 ar
    20   10   35 1
    21   10   36 1
    22   12   13 1
    23   12   27 1
    24   12   14 1
    25   14   15 1
    26   14   37 1
    27   14   38 1
    28   15   16 1
    29   15   39 1
    30   15   40 1
    31   16   17 1
    32   16   41 1
    33   16   42 1
    34   17   18 1
    35   17   26 1
    36   18   25 ar
    37   18   19 ar
    38   19   20 ar
    39   19   43 1
    40   20   21 ar
    41   21   22 1
    42   21   24 ar
    43   22   23 3
    44   24   25 ar
    45   24   44 1
    46   26   27 1
    47   26   45 1
    48   26   46 1
    49   27   47 1
    50   27   48 1
##########                 Name:     ZINC000449750092
##########          Protonation:                 none
##########               SMILES:   COC1=CC=CN=C1C[NH2+][C@@H]1CN(CC2=CC=CC=C2)C[C@H]1C
##########            Long Name:   NO_LONG_NAME
##########          FlexRecCode: 1
##########               Number:                 9638
##########   Ligand Source File: /nfs/db/export/3D/DF/ADMO/DFADMO.xlj.db2.gz
##########                 Rank:                    1
##########               Setnum:                   44
##########             Matchnum:                    1
##########                Cloud:                    1
##########        Electrostatic:           -34.031296
##########                 Gist:             0.000000
##########        Van der Waals:           -31.925579
##########  Ligand Polar Desolv:            14.687011
########## Ligand Apolar Desolv:            -3.750517
##########      Internal Energy:             0.000000
##########      Receptor Energy:             0.000000
########## Receptor Desolvation:             0.000000
########## Receptor Hydrophobic:             0.000000
##########         Total Energy:           -55.020386
##########        Ligand Charge:             1.000000
##########            Arbitrary:    +999.9990
##########        Ligand Energy:             0.000000

@<TRIPOS>MOLECULE
 ZINC000449750092      none
   49    51     0     0     0



@<TRIPOS>ATOM
      1 C1        -13.5018    15.0870   -12.8857 C.3        1  LIG1   0.0200
      2 O1        -14.3434    15.3237   -14.0161 O.3        1  LIG1  -0.3200
      3 C2        -14.9975    14.2507   -14.5338 C.ar       1  LIG1   0.1100
      4 C3        -14.8430    12.9897   -13.9674 C.ar       1  LIG1  -0.1600
      5 C4        -15.5309    11.9263   -14.5300 C.ar       1  LIG1  -0.0900
      6 C5        -16.3413    12.1515   -15.6266 C.ar       1  LIG1   0.0700
      7 N1        -16.4660    13.3599   -16.1397 N.ar       1  LIG1  -0.4300
      8 C6        -15.8335    14.3985   -15.6313 C.ar       1  LIG1   0.0200
      9 C7        -16.0106    15.7586   -16.2559 C.3        1  LIG1   0.0700
     10 N2        -16.9355    15.6587   -17.3927 N.4        1  LIG1  -0.5000
     11 H1        -16.5591    15.0204   -18.0776 H          1  LIG1   0.4300
     12 H2        -17.8288    15.3177   -17.0706 H          1  LIG1   0.4200
     13 C8        -17.1082    16.9844   -18.0015 C.3        1  LIG1   0.0200
     14 H3        -17.1684    17.7504   -17.2284 H          1  LIG1   0.1600
     15 C9        -18.3765    17.0095   -18.8812 C.3        1  LIG1   0.0100
     16 N3        -18.0083    17.8561   -20.0450 N.3        1  LIG1  -0.4900
     17 C10       -18.8895    17.5897   -21.1897 C.3        1  LIG1   0.0900
     18 C11       -20.3040    17.4072   -20.7031 C.ar       1  LIG1  -0.1000
     19 C12       -20.7566    16.1494   -20.3506 C.ar       1  LIG1  -0.0900
     20 C13       -22.0541    15.9820   -19.9040 C.ar       1  LIG1  -0.1200
     21 C14       -22.8987    17.0722   -19.8098 C.ar       1  LIG1  -0.1100
     22 C15       -22.4458    18.3300   -20.1614 C.ar       1  LIG1  -0.1200
     23 C16       -21.1470    18.4982   -20.6037 C.ar       1  LIG1  -0.1200
     24 C17       -16.6072    17.4677   -20.3501 C.3        1  LIG1   0.0300
     25 C18       -15.9428    17.2870   -18.9657 C.3        1  LIG1  -0.1100
     26 H4        -15.2432    16.4514   -18.9877 H          1  LIG1   0.0900
     27 C19       -15.2222    18.5712   -18.5504 C.3        1  LIG1  -0.1500
     28 H5        -13.0410    16.0241   -12.5732 H          1  LIG1   0.1100
     29 H6        -14.0979    14.6844   -12.0668 H          1  LIG1   0.0700
     30 H7        -12.7244    14.3719   -13.1550 H          1  LIG1   0.0700
     31 H8        -14.2025    12.8429   -13.1104 H          1  LIG1   0.1500
     32 H9        -15.4345    10.9333   -14.1165 H          1  LIG1   0.1500
     33 H10       -16.8796    11.3265   -16.0696 H          1  LIG1   0.1800
     34 H11       -16.4171    16.4480   -15.5160 H          1  LIG1   0.1500
     35 H12       -15.0454    16.1268   -16.6040 H          1  LIG1   0.1500
     36 H13       -18.6313    16.0019   -19.2096 H          1  LIG1   0.0700
     37 H14       -19.2087    17.4543   -18.3357 H          1  LIG1   0.1200
     38 H15       -18.8492    18.4303   -21.8825 H          1  LIG1   0.0500
     39 H16       -18.5604    16.6836   -21.6985 H          1  LIG1   0.1000
     40 H17       -20.0967    15.2978   -20.4242 H          1  LIG1   0.1200
     41 H18       -22.4080    14.9994   -19.6292 H          1  LIG1   0.1300
     42 H19       -23.9127    16.9412   -19.4616 H          1  LIG1   0.1300
     43 H20       -23.1058    19.1816   -20.0880 H          1  LIG1   0.1200
     44 H21       -20.7931    19.4808   -20.8785 H          1  LIG1   0.1200
     45 H22       -16.5851    16.5318   -20.9084 H          1  LIG1   0.0600
     46 H23       -16.1070    18.2576   -20.9105 H          1  LIG1   0.1100
     47 H24       -14.4034    18.7684   -19.2422 H          1  LIG1   0.0800
     48 H25       -15.9243    19.4048   -18.5714 H          1  LIG1   0.0600
     49 H26       -14.8259    18.4554   -17.5415 H          1  LIG1   0.0800
@<TRIPOS>BOND
     1    1    2 1
     2    1   28 1
     3    1   29 1
     4    1   30 1
     5    2    3 1
     6    3    8 ar
     7    3    4 ar
     8    4    5 ar
     9    4   31 1
    10    5    6 ar
    11    5   32 1
    12    6    7 ar
    13    6   33 1
    14    7    8 ar
    15    8    9 1
    16    9   10 1
    17    9   34 1
    18    9   35 1
    19   10   11 1
    20   10   12 1
    21   10   13 1
    22   13   14 1
    23   13   25 1
    24   13   15 1
    25   15   16 1
    26   15   36 1
    27   15   37 1
    28   16   17 1
    29   16   24 1
    30   17   18 1
    31   17   38 1
    32   17   39 1
    33   18   23 ar
    34   18   19 ar
    35   19   20 ar
    36   19   40 1
    37   20   21 ar
    38   20   41 1
    39   21   22 ar
    40   21   42 1
    41   22   23 ar
    42   22   43 1
    43   23   44 1
    44   24   25 1
    45   24   45 1
    46   24   46 1
    47   25   26 1
    48   25   27 1
    49   27   47 1
    50   27   48 1
    51   27   49 1
##########                 Name:     ZINC000245396943
##########          Protonation:                 none
##########               SMILES:   C[C@H](C1=CC=CC(Cl)=C1)[N@@H+](C)C[C@@H]1CCC[C@H]1O
##########            Long Name:   NO_LONG_NAME
##########          FlexRecCode: 1
##########               Number:                10162
##########   Ligand Source File: /nfs/db/export/3D/CG/ADMO/CGADMO.xaxo.db2.gz
##########                 Rank:                    1
##########               Setnum:                   36
##########             Matchnum:                    1
##########                Cloud:                    1
##########        Electrostatic:           -37.002350
##########                 Gist:             0.000000
##########        Van der Waals:           -26.243553
##########  Ligand Polar Desolv:            12.097004
########## Ligand Apolar Desolv:            -3.812233
##########      Internal Energy:             0.000000
##########      Receptor Energy:             0.000000
########## Receptor Desolvation:             0.000000
########## Receptor Hydrophobic:             0.000000
##########         Total Energy:           -54.961132
##########        Ligand Charge:             1.000000
##########            Arbitrary:    +999.9990
##########        Ligand Energy:             0.000000

@<TRIPOS>MOLECULE
 ZINC000245396943      none
   41    42     0     0     0



@<TRIPOS>ATOM
      1 C1        -16.3625    15.8504   -19.4828 C.3        1  LIG1  -0.1800
      2 C2        -16.8614    16.8777   -18.4645 C.3        1  LIG1   0.0800
      3 H1        -16.7913    17.8775   -18.8930 H          1  LIG1   0.1500
      4 C3        -16.0144    16.8040   -17.2203 C.ar       1  LIG1  -0.1300
      5 C4        -15.9454    15.6262   -16.5002 C.ar       1  LIG1  -0.1200
      6 C5        -15.1682    15.5577   -15.3587 C.ar       1  LIG1  -0.0900
      7 C6        -14.4602    16.6669   -14.9369 C.ar       1  LIG1  -0.0900
      8 C7        -14.5287    17.8462   -15.6575 C.ar       1  LIG1  -0.0300
      9 Cl1       -13.6390    19.2400   -15.1286 Cl         1  LIG1  -0.0400
     10 C8        -15.3020    17.9125   -16.8026 C.ar       1  LIG1  -0.0800
     11 N1        -18.2604    16.5884   -18.1224 N.4        1  LIG1  -0.3800
     12 H2        -18.3877    15.5906   -18.0421 H          1  LIG1   0.4200
     13 C9        -18.5943    17.2290   -16.8433 C.3        1  LIG1  -0.0600
     14 C10       -19.1404    17.1110   -19.1762 C.3        1  LIG1  -0.0100
     15 C11       -20.4974    16.4082   -19.1025 C.3        1  LIG1  -0.1200
     16 H3        -20.3578    15.3490   -18.8867 H          1  LIG1   0.1100
     17 C12       -21.2548    16.5807   -20.4354 C.3        1  LIG1  -0.1400
     18 C13       -22.7349    16.7507   -20.0120 C.3        1  LIG1  -0.1200
     19 C14       -22.6262    17.6036   -18.7236 C.3        1  LIG1  -0.1600
     20 C15       -21.3689    17.0578   -18.0133 C.3        1  LIG1   0.1100
     21 H4        -20.8251    17.8739   -17.5376 H          1  LIG1   0.0700
     22 O1        -21.7424    16.0839   -17.0366 O.3        1  LIG1  -0.5600
     23 H5        -16.4325    14.8506   -19.0543 H          1  LIG1   0.0800
     24 H6        -16.9749    15.9039   -20.3828 H          1  LIG1   0.0900
     25 H7        -15.3243    16.0650   -19.7366 H          1  LIG1   0.1100
     26 H8        -16.4992    14.7593   -16.8290 H          1  LIG1   0.1200
     27 H9        -15.1148    14.6371   -14.7965 H          1  LIG1   0.1500
     28 H10       -13.8536    16.6134   -14.0450 H          1  LIG1   0.1500
     29 H11       -15.3560    18.8327   -17.3653 H          1  LIG1   0.1400
     30 H12       -19.6323    17.0143   -16.5895 H          1  LIG1   0.1200
     31 H13       -17.9414    16.8412   -16.0615 H          1  LIG1   0.1300
     32 H14       -18.4569    18.3069   -16.9301 H          1  LIG1   0.1300
     33 H15       -19.2782    18.1831   -19.0359 H          1  LIG1   0.1300
     34 H16       -18.6885    16.9274   -20.1510 H          1  LIG1   0.1400
     35 H17       -20.9041    17.4688   -20.9613 H          1  LIG1   0.0800
     36 H18       -21.1358    15.6948   -21.0591 H          1  LIG1   0.0800
     37 H19       -23.2981    17.2810   -20.7799 H          1  LIG1   0.0800
     38 H20       -23.1889    15.7831   -19.7975 H          1  LIG1   0.0800
     39 H21       -22.4970    18.6568   -18.9730 H          1  LIG1   0.0800
     40 H22       -23.5079    17.4641   -18.0982 H          1  LIG1   0.0800
     41 H23       -20.9929    15.6715   -16.5857 H          1  LIG1   0.3900
@<TRIPOS>BOND
     1    1    2 1
     2    1   23 1
     3    1   24 1
     4    1   25 1
     5    2    3 1
     6    2    4 1
     7    2   11 1
     8    4   10 ar
     9    4    5 ar
    10    5    6 ar
    11    5   26 1
    12    6    7 ar
    13    6   27 1
    14    7    8 ar
    15    7   28 1
    16    8    9 1
    17    8   10 ar
    18   10   29 1
    19   11   12 1
    20   11   13 1
    21   11   14 1
    22   13   30 1
    23   13   31 1
    24   13   32 1
    25   14   15 1
    26   14   33 1
    27   14   34 1
    28   15   16 1
    29   15   20 1
    30   15   17 1
    31   17   18 1
    32   17   35 1
    33   17   36 1
    34   18   19 1
    35   18   37 1
    36   18   38 1
    37   19   20 1
    38   19   39 1
    39   19   40 1
    40   20   21 1
    41   20   22 1
    42   22   41 1
##########                 Name:     ZINC000450306801
##########          Protonation:                 none
##########               SMILES:   C[C@H](CNC1=C2C=CC=C([N+](=O)[O-])C2=CC=N1)[N@@H+](C)C1CC1
##########            Long Name:   NO_LONG_NAME
##########          FlexRecCode: 1
##########               Number:                 5420
##########   Ligand Source File: /nfs/db/export/3D/DG/BDMO/DGBDMO.xac.db2.gz
##########                 Rank:                    1
##########               Setnum:                    7
##########             Matchnum:                    1
##########                Cloud:                    1
##########        Electrostatic:           -39.236931
##########                 Gist:             0.000000
##########        Van der Waals:           -31.838697
##########  Ligand Polar Desolv:            22.303932
########## Ligand Apolar Desolv:            -6.182359
##########      Internal Energy:             0.000000
##########      Receptor Energy:             0.000000
########## Receptor Desolvation:             0.000000
########## Receptor Hydrophobic:             0.000000
##########         Total Energy:           -54.954056
##########        Ligand Charge:             1.000000
##########            Arbitrary:    +999.9990
##########        Ligand Energy:             0.000000

@<TRIPOS>MOLECULE
 ZINC000450306801      none
   43    45     0     0     0



@<TRIPOS>ATOM
      1 C1        -17.8334    16.0630   -20.0023 C.3        1  LIG1  -0.1800
      2 C2        -17.5495    16.9936   -18.8216 C.3        1  LIG1   0.0200
      3 H1        -17.4795    18.0215   -19.1776 H          1  LIG1   0.1500
      4 C3        -16.2292    16.5916   -18.1612 C.3        1  LIG1   0.1100
      5 N1        -16.4530    15.4409   -17.2826 N.pl3      1  LIG1  -0.7300
      6 C4        -15.6678    15.2673   -16.1559 C.ar       1  LIG1   0.4400
      7 C5        -15.5673    13.9950   -15.5503 C.ar       1  LIG1  -0.1400
      8 C6        -16.2436    12.8764   -16.0541 C.ar       1  LIG1  -0.0400
      9 C7        -16.1096    11.6725   -15.4291 C.ar       1  LIG1  -0.1300
     10 C8        -15.3103    11.5361   -14.2967 C.ar       1  LIG1  -0.0100
     11 C9        -14.6383    12.6031   -13.7798 C.ar       1  LIG1  -0.0400
     12 N2        -13.7931    12.4402   -12.5755 N.pl3      1  LIG1   0.0200
     13 O1        -13.6962    11.3493   -12.0424 O.2        1  LIG1  -0.1400
     14 O2        -13.1946    13.3972   -12.1176 O.2        1  LIG1  -0.1400
     15 C10       -14.7537    13.8561   -14.3978 C.ar       1  LIG1   0.0500
     16 C11       -14.0842    14.9962   -13.9123 C.ar       1  LIG1  -0.2100
     17 C12       -14.2441    16.1792   -14.5652 C.ar       1  LIG1   0.1600
     18 N3        -15.0056    16.2884   -15.6458 N.ar       1  LIG1  -0.5400
     19 N4        -18.6390    16.8878   -17.8418 N.4        1  LIG1  -0.3600
     20 H2        -18.7038    15.9364   -17.5122 H          1  LIG1   0.4100
     21 C13       -18.3665    17.7814   -16.7080 C.3        1  LIG1  -0.0500
     22 C14       -19.9067    17.2738   -18.4757 C.3        1  LIG1  -0.0900
     23 C15       -20.7396    16.1651   -19.1222 C.3        1  LIG1  -0.1500
     24 C16       -21.2014    16.8026   -17.8104 C.3        1  LIG1  -0.1500
     25 H3        -17.9033    15.0351   -19.6463 H          1  LIG1   0.0900
     26 H4        -18.7739    16.3493   -20.4727 H          1  LIG1   0.0900
     27 H5        -17.0248    16.1414   -20.7292 H          1  LIG1   0.1100
     28 H6        -15.5042    16.3257   -18.9306 H          1  LIG1   0.1000
     29 H7        -15.8469    17.4274   -17.5750 H          1  LIG1   0.1200
     30 H8        -17.1515    14.8007   -17.4903 H          1  LIG1   0.4000
     31 H9        -16.8672    12.9672   -16.9312 H          1  LIG1   0.1300
     32 H10       -16.6317    10.8107   -15.8181 H          1  LIG1   0.1600
     33 H11       -15.2221    10.5705   -13.8208 H          1  LIG1   0.1600
     34 H12       -13.4551    14.9327   -13.0367 H          1  LIG1   0.1600
     35 H13       -13.7318    17.0551   -14.1950 H          1  LIG1   0.1700
     36 H14       -19.1749    17.7029   -15.9812 H          1  LIG1   0.1200
     37 H15       -17.4258    17.4950   -16.2377 H          1  LIG1   0.1300
     38 H16       -18.2965    18.8091   -17.0641 H          1  LIG1   0.1300
     39 H17       -19.9142    18.2532   -18.9539 H          1  LIG1   0.1800
     40 H18       -21.2950    16.4148   -20.0262 H          1  LIG1   0.1300
     41 H19       -20.3468    15.1492   -19.0773 H          1  LIG1   0.1100
     42 H20       -21.1126    16.2064   -16.9023 H          1  LIG1   0.1200
     43 H21       -22.0607    17.4720   -17.8514 H          1  LIG1   0.1300
@<TRIPOS>BOND
     1    1    2 1
     2    1   25 1
     3    1   26 1
     4    1   27 1
     5    2    3 1
     6    2    4 1
     7    2   19 1
     8    4    5 1
     9    4   28 1
    10    4   29 1
    11    5    6 1
    12    5   30 1
    13    6   18 ar
    14    6    7 ar
    15    7   15 ar
    16    7    8 ar
    17    8    9 ar
    18    8   31 1
    19    9   10 ar
    20    9   32 1
    21   10   11 ar
    22   10   33 1
    23   11   12 1
    24   11   15 ar
    25   12   13 2
    26   12   14 2
    27   15   16 ar
    28   16   17 ar
    29   16   34 1
    30   17   18 ar
    31   17   35 1
    32   19   20 1
    33   19   21 1
    34   19   22 1
    35   21   36 1
    36   21   37 1
    37   21   38 1
    38   22   24 1
    39   22   23 1
    40   22   39 1
    41   23   24 1
    42   23   40 1
    43   23   41 1
    44   24   42 1
    45   24   43 1
##########                 Name:     ZINC000351729479
##########          Protonation:                 none
##########               SMILES:   CCC1=NOC=C1C[N@H+]1CCCN(C2=CC(OC)=CC(OC)=C2)CC1
##########            Long Name:   NO_LONG_NAME
##########          FlexRecCode: 1
##########               Number:                 5096
##########   Ligand Source File: /nfs/db/export/3D/EF/ADMO/EFADMO.xang.db2.gz
##########                 Rank:                    1
##########               Setnum:                   36
##########             Matchnum:                    1
##########                Cloud:                    1
##########        Electrostatic:           -31.027489
##########                 Gist:             0.000000
##########        Van der Waals:           -33.250099
##########  Ligand Polar Desolv:            13.670383
########## Ligand Apolar Desolv:            -4.372347
##########      Internal Energy:             0.000000
##########      Receptor Energy:             0.000000
########## Receptor Desolvation:             0.000000
########## Receptor Hydrophobic:             0.000000
##########         Total Energy:           -54.979553
##########        Ligand Charge:             1.000000
##########            Arbitrary:    +999.9990
##########        Ligand Energy:             0.000000

@<TRIPOS>MOLECULE
 ZINC000351729479      none
   53    55     0     0     0



@<TRIPOS>ATOM
      1 C1        -17.2565    21.2203   -21.5487 C.3        1  LIG1  -0.1500
      2 C2        -16.7520    19.7980   -21.8000 C.3        1  LIG1  -0.0600
      3 C3        -17.8944    18.8263   -21.6525 C.2        1  LIG1   0.0400
      4 N1        -19.0933    18.9518   -22.1441 N.2        1  LIG1  -0.3400
      5 O1        -19.7931    18.0082   -21.8574 O.3        1  LIG1   0.1200
      6 C4        -19.1291    17.1093   -21.1173 C.2        1  LIG1   0.0100
      7 C5        -17.8748    17.5951   -20.9579 C.2        1  LIG1  -0.2800
      8 C6        -16.7269    16.9719   -20.2062 C.3        1  LIG1   0.0800
      9 N2        -16.7603    17.4150   -18.8061 N.4        1  LIG1  -0.3700
     10 H1        -17.0105    18.3923   -18.7888 H          1  LIG1   0.4100
     11 C7        -17.7992    16.6607   -18.1084 C.3        1  LIG1  -0.0100
     12 C8        -18.3578    17.5038   -16.9834 C.3        1  LIG1  -0.1600
     13 C9        -17.6042    17.1832   -15.6799 C.3        1  LIG1   0.1100
     14 N3        -16.1602    17.0029   -15.9319 N.pl3      1  LIG1  -0.6300
     15 C10       -15.4869    15.9682   -15.2789 C.ar       1  LIG1   0.2600
     16 C11       -15.8815    14.6511   -15.4733 C.ar       1  LIG1  -0.2700
     17 C12       -15.2123    13.6245   -14.8252 C.ar       1  LIG1   0.2100
     18 O2        -15.5984    12.3355   -15.0153 O.3        1  LIG1  -0.3100
     19 C13       -16.7011    12.1119   -15.8962 C.3        1  LIG1   0.0200
     20 C14       -14.1486    13.9126   -13.9830 C.ar       1  LIG1  -0.3400
     21 C15       -13.7541    15.2278   -13.7878 C.ar       1  LIG1   0.2100
     22 O3        -12.7119    15.5090   -12.9623 O.3        1  LIG1  -0.3100
     23 C16       -12.0689    14.4011   -12.3288 C.3        1  LIG1   0.0200
     24 C17       -14.4189    16.2552   -14.4393 C.ar       1  LIG1  -0.2600
     25 C18       -15.4175    17.8603   -16.8325 C.3        1  LIG1   0.1100
     26 C19       -15.4630    17.2775   -18.2642 C.3        1  LIG1  -0.0600
     27 H2        -16.4301    21.9231   -21.6555 H          1  LIG1   0.0400
     28 H3        -18.0353    21.4626   -22.2717 H          1  LIG1   0.0700
     29 H4        -17.6635    21.2885   -20.5397 H          1  LIG1   0.0800
     30 H5        -16.3451    19.7297   -22.8089 H          1  LIG1   0.0900
     31 H6        -15.9731    19.5556   -21.0771 H          1  LIG1   0.1000
     32 H7        -19.5166    16.1793   -20.7283 H          1  LIG1   0.2300
     33 H8        -16.8136    15.8860   -20.2459 H          1  LIG1   0.1400
     34 H9        -15.7852    17.2780   -20.6620 H          1  LIG1   0.1400
     35 H10       -18.5977    16.4099   -18.8065 H          1  LIG1   0.1400
     36 H11       -17.3717    15.7453   -17.6994 H          1  LIG1   0.1400
     37 H12       -18.2344    18.5595   -17.2246 H          1  LIG1   0.0900
     38 H13       -19.4173    17.2819   -16.8547 H          1  LIG1   0.1300
     39 H14       -17.7447    18.0024   -14.9748 H          1  LIG1   0.0800
     40 H15       -18.0090    16.2678   -15.2485 H          1  LIG1   0.1000
     41 H16       -16.7097    14.4267   -16.1292 H          1  LIG1   0.1300
     42 H17       -16.9052    11.0431   -15.9590 H          1  LIG1   0.0600
     43 H18       -17.5818    12.6281   -15.5141 H          1  LIG1   0.0600
     44 H19       -16.4576    12.4941   -16.8877 H          1  LIG1   0.1100
     45 H20       -13.6275    13.1123   -13.4785 H          1  LIG1   0.1400
     46 H21       -11.2564    14.7640   -11.6993 H          1  LIG1   0.0600
     47 H22       -12.7919    13.8639   -11.7151 H          1  LIG1   0.0600
     48 H23       -11.6679    13.7305   -13.0888 H          1  LIG1   0.1100
     49 H24       -14.1113    17.2793   -14.2874 H          1  LIG1   0.1400
     50 H25       -15.8593    18.8568   -16.8306 H          1  LIG1   0.1000
     51 H26       -14.3813    17.9240   -16.5000 H          1  LIG1   0.1200
     52 H27       -15.1908    16.2225   -18.2332 H          1  LIG1   0.1400
     53 H28       -14.7531    17.8128   -18.8947 H          1  LIG1   0.1400
@<TRIPOS>BOND
     1    1    2 1
     2    1   27 1
     3    1   28 1
     4    1   29 1
     5    2    3 1
     6    2   30 1
     7    2   31 1
     8    3    7 1
     9    3    4 2
    10    4    5 1
    11    5    6 1
    12    6    7 2
    13    6   32 1
    14    7    8 1
    15    8    9 1
    16    8   33 1
    17    8   34 1
    18    9   10 1
    19    9   26 1
    20    9   11 1
    21   11   12 1
    22   11   35 1
    23   11   36 1
    24   12   13 1
    25   12   37 1
    26   12   38 1
    27   13   14 1
    28   13   39 1
    29   13   40 1
    30   14   15 1
    31   14   25 1
    32   15   24 ar
    33   15   16 ar
    34   16   17 ar
    35   16   41 1
    36   17   18 1
    37   17   20 ar
    38   18   19 1
    39   19   42 1
    40   19   43 1
    41   19   44 1
    42   20   21 ar
    43   20   45 1
    44   21   22 1
    45   21   24 ar
    46   22   23 1
    47   23   46 1
    48   23   47 1
    49   23   48 1
    50   24   49 1
    51   25   26 1
    52   25   50 1
    53   25   51 1
    54   26   52 1
    55   26   53 1
##########                 Name:     ZINC000333123462
##########          Protonation:                 none
##########               SMILES:   NC1=C2C=CC=CC2=NC(C[N@H+]2CC[C@@H](C3CCCC3)C2)=N1
##########            Long Name:   NO_LONG_NAME
##########          FlexRecCode: 1
##########               Number:                 2277
##########   Ligand Source File: /nfs/db/export/3D/CG/ADMO/CGADMO.xabz.db2.gz
##########                 Rank:                    1
##########               Setnum:                    3
##########             Matchnum:                    1
##########                Cloud:                    1
##########        Electrostatic:           -33.379772
##########                 Gist:             0.000000
##########        Van der Waals:           -29.046623
##########  Ligand Polar Desolv:            12.638786
########## Ligand Apolar Desolv:            -5.242918
##########      Internal Energy:             0.000000
##########      Receptor Energy:             0.000000
########## Receptor Desolvation:             0.000000
########## Receptor Hydrophobic:             0.000000
##########         Total Energy:           -55.030525
##########        Ligand Charge:             1.000000
##########            Arbitrary:    +999.9990
##########        Ligand Energy:             0.000000

@<TRIPOS>MOLECULE
 ZINC000333123462      none
   47    50     0     0     0



@<TRIPOS>ATOM
      1 N1        -16.2578    12.1786   -15.3779 N.pl3      1  LIG1  -0.8100
      2 C1        -15.7695    13.4650   -15.4613 C.ar       1  LIG1   0.4900
      3 C2        -14.8270    13.9477   -14.5210 C.ar       1  LIG1  -0.1800
      4 C3        -14.3485    13.1543   -13.4723 C.ar       1  LIG1  -0.0800
      5 C4        -13.4405    13.6739   -12.5974 C.ar       1  LIG1  -0.1100
      6 C5        -12.9841    14.9821   -12.7333 C.ar       1  LIG1  -0.0600
      7 C6        -13.4310    15.7806   -13.7436 C.ar       1  LIG1  -0.1000
      8 C7        -14.3637    15.2787   -14.6615 C.ar       1  LIG1   0.1800
      9 N2        -14.8351    16.0217   -15.6736 N.ar       1  LIG1  -0.5200
     10 C8        -15.7076    15.5212   -16.5159 C.ar       1  LIG1   0.3100
     11 C9        -16.2076    16.3948   -17.6375 C.3        1  LIG1   0.0800
     12 N3        -17.6659    16.2594   -17.7510 N.4        1  LIG1  -0.3900
     13 H1        -17.9380    15.2971   -17.6163 H          1  LIG1   0.4300
     14 C10       -18.3371    17.1231   -16.7555 C.3        1  LIG1   0.0000
     15 C11       -19.6242    17.6546   -17.4133 C.3        1  LIG1  -0.1400
     16 C12       -19.6198    17.0657   -18.8427 C.3        1  LIG1  -0.1000
     17 H2        -20.2228    16.1589   -18.8881 H          1  LIG1   0.1100
     18 C13       -20.1207    18.0977   -19.8551 C.3        1  LIG1  -0.0800
     19 C14       -20.2384    17.4632   -21.2630 C.3        1  LIG1  -0.1300
     20 C15       -21.2756    18.3758   -21.9636 C.3        1  LIG1  -0.1300
     21 C16       -22.2953    18.7099   -20.8553 C.3        1  LIG1  -0.1300
     22 C17       -21.5610    18.5331   -19.5146 C.3        1  LIG1  -0.1200
     23 C18       -18.1232    16.7397   -19.0800 C.3        1  LIG1   0.0000
     24 N4        -16.1656    14.2828   -16.4275 N.ar       1  LIG1  -0.6000
     25 H3        -16.8985    11.8596   -16.0325 H          1  LIG1   0.4200
     26 H4        -15.9575    11.5911   -14.6668 H          1  LIG1   0.4200
     27 H5        -14.6959    12.1383   -13.3566 H          1  LIG1   0.1300
     28 H6        -13.0707    13.0622   -11.7877 H          1  LIG1   0.1400
     29 H7        -12.2653    15.3703   -12.0271 H          1  LIG1   0.1400
     30 H8        -13.0684    16.7937   -13.8364 H          1  LIG1   0.1500
     31 H9        -15.9544    17.4343   -17.4290 H          1  LIG1   0.1500
     32 H10       -15.7404    16.0877   -18.5732 H          1  LIG1   0.1500
     33 H11       -18.5866    16.5421   -15.8676 H          1  LIG1   0.1200
     34 H12       -17.6865    17.9554   -16.4871 H          1  LIG1   0.1400
     35 H13       -20.5002    17.3089   -16.8645 H          1  LIG1   0.1000
     36 H14       -19.6070    18.7438   -17.4529 H          1  LIG1   0.1100
     37 H15       -19.4564    18.9617   -19.8782 H          1  LIG1   0.0900
     38 H16       -19.2810    17.4965   -21.7830 H          1  LIG1   0.0700
     39 H17       -20.6075    16.4397   -21.1959 H          1  LIG1   0.0700
     40 H18       -20.7983    19.2848   -22.3294 H          1  LIG1   0.0700
     41 H19       -21.7615    17.8433   -22.7812 H          1  LIG1   0.0700
     42 H20       -22.6374    19.7393   -20.9607 H          1  LIG1   0.0700
     43 H21       -23.1430    18.0268   -20.9095 H          1  LIG1   0.0700
     44 H22       -22.0523    17.7643   -18.9183 H          1  LIG1   0.0700
     45 H23       -21.5468    19.4768   -18.9694 H          1  LIG1   0.0700
     46 H24       -17.5761    17.6358   -19.3730 H          1  LIG1   0.1400
     47 H25       -18.0140    15.9581   -19.8316 H          1  LIG1   0.1400
@<TRIPOS>BOND
     1    1    2 1
     2    1   25 1
     3    1   26 1
     4    2   24 ar
     5    2    3 ar
     6    3    8 ar
     7    3    4 ar
     8    4    5 ar
     9    4   27 1
    10    5    6 ar
    11    5   28 1
    12    6    7 ar
    13    6   29 1
    14    7    8 ar
    15    7   30 1
    16    8    9 ar
    17    9   10 ar
    18   10   11 1
    19   10   24 ar
    20   11   12 1
    21   11   31 1
    22   11   32 1
    23   12   13 1
    24   12   23 1
    25   12   14 1
    26   14   15 1
    27   14   33 1
    28   14   34 1
    29   15   16 1
    30   15   35 1
    31   15   36 1
    32   16   17 1
    33   16   18 1
    34   16   23 1
    35   18   22 1
    36   18   19 1
    37   18   37 1
    38   19   20 1
    39   19   38 1
    40   19   39 1
    41   20   21 1
    42   20   40 1
    43   20   41 1
    44   21   22 1
    45   21   42 1
    46   21   43 1
    47   22   44 1
    48   22   45 1
    49   23   46 1
    50   23   47 1
##########                 Name:     ZINC000248356764
##########          Protonation:                 none
##########               SMILES:   O=C(CN1CC[N@@H+]2CCCC[C@H]2C1)NC1=CC=CC=C1F
##########            Long Name:   NO_LONG_NAME
##########          FlexRecCode: 1
##########               Number:                 5168
##########   Ligand Source File: /nfs/db/export/3D/CD/ADRO/CDADRO.xbgw.db2.gz
##########                 Rank:                    1
##########               Setnum:                   69
##########             Matchnum:                    1
##########                Cloud:                    1
##########        Electrostatic:           -39.000183
##########                 Gist:             0.000000
##########        Van der Waals:           -26.832649
##########  Ligand Polar Desolv:            14.889055
########## Ligand Apolar Desolv:            -4.072964
##########      Internal Energy:             0.000000
##########      Receptor Energy:             0.000000
########## Receptor Desolvation:             0.000000
########## Receptor Hydrophobic:             0.000000
##########         Total Energy:           -55.016739
##########        Ligand Charge:             1.000000
##########            Arbitrary:    +999.9990
##########        Ligand Energy:             0.000000

@<TRIPOS>MOLECULE
 ZINC000248356764      none
   44    46     0     0     0



@<TRIPOS>ATOM
      1 O1        -16.4185    17.0845   -15.1888 O.2        1  LIG1  -0.5000
      2 C1        -15.8586    16.8593   -16.2408 C.2        1  LIG1   0.5200
      3 C2        -15.8694    17.8937   -17.3368 C.3        1  LIG1   0.0400
      4 N1        -17.0360    17.6837   -18.1936 N.3        1  LIG1  -0.5200
      5 C3        -16.9627    16.3736   -18.8510 C.3        1  LIG1   0.0200
      6 C4        -18.1424    16.1714   -19.7935 C.3        1  LIG1   0.0000
      7 N2        -19.4327    16.3012   -19.0185 N.4        1  LIG1  -0.3800
      8 H1        -19.4264    15.5669   -18.2827 H          1  LIG1   0.4200
      9 C5        -20.6287    16.0459   -19.9072 C.3        1  LIG1  -0.0100
     10 C6        -21.9009    16.0894   -19.0754 C.3        1  LIG1  -0.1500
     11 C7        -22.0348    17.4092   -18.3261 C.3        1  LIG1  -0.1400
     12 C8        -20.7993    17.6850   -17.4763 C.3        1  LIG1  -0.1400
     13 C9        -19.5136    17.6398   -18.3072 C.3        1  LIG1   0.0400
     14 H2        -19.5296    18.4195   -19.0674 H          1  LIG1   0.1400
     15 C10       -18.2758    17.8017   -17.4149 C.3        1  LIG1   0.0300
     16 N3        -15.2220    15.6862   -16.4279 N.am       1  LIG1  -0.6700
     17 C11       -15.2119    14.7250   -15.4094 C.ar       1  LIG1   0.1000
     18 C12       -15.7511    13.4665   -15.6353 C.ar       1  LIG1  -0.0900
     19 C13       -15.7394    12.5199   -14.6287 C.ar       1  LIG1  -0.1100
     20 C14       -15.1913    12.8245   -13.3967 C.ar       1  LIG1  -0.1000
     21 C15       -14.6531    14.0775   -13.1662 C.ar       1  LIG1  -0.1300
     22 C16       -14.6561    15.0277   -14.1707 C.ar       1  LIG1   0.0800
     23 F1        -14.1300    16.2515   -13.9461 F          1  LIG1  -0.1400
     24 H3        -15.9169    18.8895   -16.8960 H          1  LIG1   0.0800
     25 H4        -14.9607    17.8024   -17.9316 H          1  LIG1   0.1200
     26 H5        -16.0247    16.3040   -19.4186 H          1  LIG1   0.1400
     27 H6        -16.9645    15.5836   -18.0877 H          1  LIG1   0.0600
     28 H7        -18.1336    16.9263   -20.5722 H          1  LIG1   0.1400
     29 H8        -18.1055    15.1805   -20.2330 H          1  LIG1   0.1400
     30 H9        -20.6536    16.8141   -20.6733 H          1  LIG1   0.1300
     31 H10       -20.5110    15.0688   -20.3640 H          1  LIG1   0.1300
     32 H11       -22.7739    15.9536   -19.7352 H          1  LIG1   0.1100
     33 H12       -21.8930    15.2575   -18.3518 H          1  LIG1   0.0900
     34 H13       -22.1714    18.2288   -19.0484 H          1  LIG1   0.0800
     35 H14       -22.9236    17.3741   -17.6773 H          1  LIG1   0.1000
     36 H15       -20.8923    18.6770   -17.0089 H          1  LIG1   0.1100
     37 H16       -20.7353    16.9366   -16.6721 H          1  LIG1   0.0900
     38 H17       -18.2892    17.0300   -16.6360 H          1  LIG1   0.0600
     39 H18       -18.3067    18.7845   -16.9299 H          1  LIG1   0.1200
     40 H19       -14.7709    15.5076   -17.2678 H          1  LIG1   0.4200
     41 H20       -16.1799    13.2271   -16.5972 H          1  LIG1   0.1500
     42 H21       -16.1593    11.5407   -14.8046 H          1  LIG1   0.1400
     43 H22       -15.1837    12.0823   -12.6121 H          1  LIG1   0.1400
     44 H23       -14.2259    14.3125   -12.2025 H          1  LIG1   0.1400
@<TRIPOS>BOND
     1    1    2 2
     2    2    3 1
     3    2   16 am
     4    3    4 1
     5    3   24 1
     6    3   25 1
     7    4   15 1
     8    4    5 1
     9    5    6 1
    10    5   26 1
    11    5   27 1
    12    6    7 1
    13    6   28 1
    14    6   29 1
    15    7    8 1
    16    7   13 1
    17    7    9 1
    18    9   10 1
    19    9   30 1
    20    9   31 1
    21   10   11 1
    22   10   32 1
    23   10   33 1
    24   11   12 1
    25   11   34 1
    26   11   35 1
    27   12   13 1
    28   12   36 1
    29   12   37 1
    30   13   14 1
    31   13   15 1
    32   15   38 1
    33   15   39 1
    34   16   17 1
    35   16   40 1
    36   17   22 ar
    37   17   18 ar
    38   18   19 ar
    39   18   41 1
    40   19   20 ar
    41   19   42 1
    42   20   21 ar
    43   20   43 1
    44   21   22 ar
    45   21   44 1
    46   22   23 1
##########                 Name:     ZINC000355163942
##########          Protonation:                 none
##########               SMILES:   CC1=CC=C(CCC(=O)NC[C@@H]2CCC[N@@H+]2CC(C)C)S1
##########            Long Name:   NO_LONG_NAME
##########          FlexRecCode: 1
##########               Number:                 9773
##########   Ligand Source File: /nfs/db/export/3D/DG/ADMO/DGADMO.xaun.db2.gz
##########                 Rank:                    1
##########               Setnum:                   84
##########             Matchnum:                    1
##########                Cloud:                    1
##########        Electrostatic:           -37.787285
##########                 Gist:             0.000000
##########        Van der Waals:           -25.321568
##########  Ligand Polar Desolv:            13.144632
########## Ligand Apolar Desolv:            -5.060493
##########      Internal Energy:             0.000000
##########      Receptor Energy:             0.000000
########## Receptor Desolvation:             0.000000
########## Receptor Hydrophobic:             0.000000
##########         Total Energy:           -55.024712
##########        Ligand Charge:             1.000000
##########            Arbitrary:    +999.9990
##########        Ligand Energy:             0.000000

@<TRIPOS>MOLECULE
 ZINC000355163942      none
   50    51     0     0     0



@<TRIPOS>ATOM
      1 C1        -22.8136    18.9577   -20.4024 C.3        1  LIG1  -0.0900
      2 C2        -21.5479    19.2185   -21.1777 C.2        1  LIG1  -0.1700
      3 C3        -20.9466    18.3433   -21.9853 C.2        1  LIG1  -0.1500
      4 C4        -19.7930    18.8077   -22.5929 C.2        1  LIG1  -0.1200
      5 C5        -19.4572    20.0599   -22.2790 C.2        1  LIG1  -0.2000
      6 C6        -18.2512    20.7941   -22.8059 C.3        1  LIG1  -0.0300
      7 C7        -17.0285    19.8763   -22.7449 C.3        1  LIG1  -0.1400
      8 C8        -16.7810    19.4634   -21.3169 C.2        1  LIG1   0.5200
      9 O1        -16.5580    20.3050   -20.4724 O.2        1  LIG1  -0.5100
     10 N1        -16.8073    18.1593   -20.9782 N.am       1  LIG1  -0.7500
     11 C9        -16.5665    17.7579   -19.5899 C.3        1  LIG1   0.1000
     12 C10       -17.7907    17.0126   -19.0548 C.3        1  LIG1   0.0100
     13 H1        -17.9773    16.1246   -19.6587 H          1  LIG1   0.1500
     14 C11       -19.0249    17.9386   -19.0877 C.3        1  LIG1  -0.1300
     15 C12       -19.7718    17.5720   -17.7781 C.3        1  LIG1  -0.1400
     16 C13       -18.5926    17.2934   -16.8128 C.3        1  LIG1  -0.0200
     17 N2        -17.5680    16.6258   -17.6496 N.4        1  LIG1  -0.3900
     18 H2        -17.6498    15.6248   -17.5525 H          1  LIG1   0.4300
     19 C14       -16.2282    17.0564   -17.2281 C.3        1  LIG1  -0.0400
     20 C15       -15.9986    16.6544   -15.7699 C.3        1  LIG1  -0.1100
     21 C16       -16.1113    15.1344   -15.6362 C.3        1  LIG1  -0.1500
     22 C17       -14.6031    17.1028   -15.3309 C.3        1  LIG1  -0.1800
     23 S1        -20.6417    20.7259   -21.1622 S.3        1  LIG1   0.1000
     24 H3        -23.1579    17.9426   -20.5994 H          1  LIG1   0.0700
     25 H4        -22.6173    19.0744   -19.3365 H          1  LIG1   0.0800
     26 H5        -23.5810    19.6680   -20.7102 H          1  LIG1   0.0800
     27 H6        -21.3308    17.3479   -22.1520 H          1  LIG1   0.1400
     28 H7        -19.2086    18.2019   -23.2697 H          1  LIG1   0.1400
     29 H8        -18.4303    21.0927   -23.8387 H          1  LIG1   0.0800
     30 H9        -18.0710    21.6803   -22.1974 H          1  LIG1   0.0900
     31 H10       -17.2089    18.9900   -23.3533 H          1  LIG1   0.1000
     32 H11       -16.1563    20.4073   -23.1261 H          1  LIG1   0.1000
     33 H12       -16.9857    17.4863   -21.6536 H          1  LIG1   0.4000
     34 H13       -15.6955    17.1040   -19.5467 H          1  LIG1   0.1000
     35 H14       -16.3860    18.6443   -18.9817 H          1  LIG1   0.1100
     36 H15       -18.7215    18.9853   -19.0782 H          1  LIG1   0.1000
     37 H16       -19.6449    17.7237   -19.9579 H          1  LIG1   0.1200
     38 H17       -20.3756    18.4083   -17.4259 H          1  LIG1   0.1200
     39 H18       -20.3839    16.6804   -17.9142 H          1  LIG1   0.1000
     40 H19       -18.2041    18.2282   -16.4088 H          1  LIG1   0.1400
     41 H20       -18.9106    16.6333   -16.0060 H          1  LIG1   0.1400
     42 H21       -15.4780    16.5796   -17.8590 H          1  LIG1   0.1500
     43 H22       -16.1480    18.1393   -17.3234 H          1  LIG1   0.1300
     44 H23       -16.7485    17.1312   -15.1390 H          1  LIG1   0.0900
     45 H24       -15.9476    14.8477   -14.5973 H          1  LIG1   0.0700
     46 H25       -17.1054    14.8149   -15.9490 H          1  LIG1   0.0800
     47 H26       -15.3612    14.6575   -16.2672 H          1  LIG1   0.0700
     48 H27       -14.4395    16.8164   -14.2920 H          1  LIG1   0.0700
     49 H28       -13.8530    16.6261   -15.9618 H          1  LIG1   0.0700
     50 H29       -14.5229    18.1858   -15.4262 H          1  LIG1   0.0800
@<TRIPOS>BOND
     1    1    2 1
     2    1   24 1
     3    1   25 1
     4    1   26 1
     5    2   23 1
     6    2    3 2
     7    3    4 1
     8    3   27 1
     9    4    5 2
    10    4   28 1
    11    5    6 1
    12    5   23 1
    13    6    7 1
    14    6   29 1
    15    6   30 1
    16    7    8 1
    17    7   31 1
    18    7   32 1
    19    8    9 2
    20    8   10 am
    21   10   11 1
    22   10   33 1
    23   11   12 1
    24   11   34 1
    25   11   35 1
    26   12   13 1
    27   12   17 1
    28   12   14 1
    29   14   15 1
    30   14   36 1
    31   14   37 1
    32   15   16 1
    33   15   38 1
    34   15   39 1
    35   16   17 1
    36   16   40 1
    37   16   41 1
    38   17   18 1
    39   17   19 1
    40   19   20 1
    41   19   42 1
    42   19   43 1
    43   20   21 1
    44   20   22 1
    45   20   44 1
    46   21   45 1
    47   21   46 1
    48   21   47 1
    49   22   48 1
    50   22   49 1
    51   22   50 1
##########                 Name:     ZINC000428838548
##########          Protonation:                 none
##########               SMILES:   C[C@H](C1=CC=CC=C1)[C@@H]([NH2+]CC(=O)NC1=CC=C(F)C(Cl)=C1)C(N)=O
##########            Long Name:   NO_LONG_NAME
##########          FlexRecCode: 1
##########               Number:                 4876
##########   Ligand Source File: /nfs/db/export/3D/FF/ADMO/FFADMO.xajq.db2.gz
##########                 Rank:                    1
##########               Setnum:                   29
##########             Matchnum:                    1
##########                Cloud:                    1
##########        Electrostatic:           -37.132996
##########                 Gist:             0.000000
##########        Van der Waals:           -34.028202
##########  Ligand Polar Desolv:            18.799236
########## Ligand Apolar Desolv:            -2.643385
##########      Internal Energy:             0.000000
##########      Receptor Energy:             0.000000
########## Receptor Desolvation:             0.000000
########## Receptor Hydrophobic:             0.000000
##########         Total Energy:           -55.005341
##########        Ligand Charge:             1.000000
##########            Arbitrary:    +999.9990
##########        Ligand Energy:             0.000000

@<TRIPOS>MOLECULE
 ZINC000428838548      none
   45    46     0     0     0



@<TRIPOS>ATOM
      1 C1        -22.6768    18.5452   -21.2538 C.3        1  LIG1  -0.1700
      2 C2        -21.4459    18.9178   -20.4252 C.3        1  LIG1  -0.0600
      3 H1        -21.6842    19.7638   -19.7805 H          1  LIG1   0.1300
      4 C3        -20.3142    19.2923   -21.3472 C.ar       1  LIG1  -0.1200
      5 C4        -19.4385    18.3215   -21.7964 C.ar       1  LIG1  -0.1500
      6 C5        -18.4004    18.6650   -22.6421 C.ar       1  LIG1  -0.1000
      7 C6        -18.2382    19.9791   -23.0392 C.ar       1  LIG1  -0.1000
      8 C7        -19.1145    20.9498   -22.5907 C.ar       1  LIG1  -0.1000
      9 C8        -20.1551    20.6055   -21.7484 C.ar       1  LIG1  -0.1000
     10 C9        -21.0290    17.7229   -19.5654 C.3        1  LIG1   0.0100
     11 H2        -20.7905    16.8770   -20.2102 H          1  LIG1   0.1700
     12 N1        -19.8470    18.0806   -18.7698 N.4        1  LIG1  -0.4900
     13 H3        -19.2166    18.6315   -19.3331 H          1  LIG1   0.4400
     14 H4        -20.1335    18.6164   -17.9642 H          1  LIG1   0.4400
     15 C10       -19.1658    16.8567   -18.3271 C.3        1  LIG1  -0.0400
     16 C11       -17.9533    17.2238   -17.5110 C.2        1  LIG1   0.5000
     17 O1        -17.6832    18.3902   -17.3172 O.2        1  LIG1  -0.5000
     18 N2        -17.1693    16.2559   -16.9963 N.am       1  LIG1  -0.6400
     19 C12       -16.0426    16.5970   -16.2379 C.ar       1  LIG1   0.1200
     20 C13       -15.3681    17.7839   -16.4905 C.ar       1  LIG1  -0.1000
     21 C14       -14.2569    18.1193   -15.7413 C.ar       1  LIG1  -0.1200
     22 C15       -13.8154    17.2731   -14.7388 C.ar       1  LIG1   0.1200
     23 F1        -12.7288    17.6033   -14.0070 F          1  LIG1  -0.1200
     24 C16       -14.4870    16.0875   -14.4846 C.ar       1  LIG1  -0.0600
     25 Cl1       -13.9317    15.0282   -13.2264 Cl         1  LIG1  -0.0300
     26 C17       -15.6020    15.7512   -15.2286 C.ar       1  LIG1  -0.0800
     27 C18       -22.1605    17.3483   -18.6433 C.2        1  LIG1   0.5100
     28 N3        -22.7055    16.1174   -18.7108 N.am       1  LIG1  -0.8200
     29 O2        -22.5808    18.1543   -17.8405 O.2        1  LIG1  -0.5100
     30 H5        -22.4383    17.6992   -21.8985 H          1  LIG1   0.0600
     31 H6        -23.4953    18.2743   -20.5869 H          1  LIG1   0.0800
     32 H7        -22.9737    19.3965   -21.8663 H          1  LIG1   0.1000
     33 H8        -19.5651    17.2948   -21.4862 H          1  LIG1   0.1100
     34 H9        -17.7158    17.9067   -22.9924 H          1  LIG1   0.1300
     35 H10       -17.4268    20.2476   -23.6993 H          1  LIG1   0.1300
     36 H11       -18.9876    21.9765   -22.9007 H          1  LIG1   0.1300
     37 H12       -20.8396    21.3639   -21.3981 H          1  LIG1   0.1300
     38 H13       -19.8469    16.2618   -17.7186 H          1  LIG1   0.1700
     39 H14       -18.8564    16.2782   -19.1974 H          1  LIG1   0.1700
     40 H15       -17.3853    15.3231   -17.1513 H          1  LIG1   0.4200
     41 H16       -15.7117    18.4445   -17.2727 H          1  LIG1   0.1500
     42 H17       -13.7321    19.0425   -15.9380 H          1  LIG1   0.1600
     43 H18       -16.1256    14.8276   -15.0304 H          1  LIG1   0.1500
     44 H19       -22.3694    15.4728   -19.3529 H          1  LIG1   0.4100
     45 H20       -23.4339    15.8764   -18.1173 H          1  LIG1   0.4300
@<TRIPOS>BOND
     1    1    2 1
     2    1   30 1
     3    1   31 1
     4    1   32 1
     5    2    3 1
     6    2    4 1
     7    2   10 1
     8    4    9 ar
     9    4    5 ar
    10    5    6 ar
    11    5   33 1
    12    6    7 ar
    13    6   34 1
    14    7    8 ar
    15    7   35 1
    16    8    9 ar
    17    8   36 1
    18    9   37 1
    19   10   11 1
    20   10   12 1
    21   10   27 1
    22   12   13 1
    23   12   14 1
    24   12   15 1
    25   15   16 1
    26   15   38 1
    27   15   39 1
    28   16   17 2
    29   16   18 am
    30   18   19 1
    31   18   40 1
    32   19   26 ar
    33   19   20 ar
    34   20   21 ar
    35   20   41 1
    36   21   22 ar
    37   21   42 1
    38   22   23 1
    39   22   24 ar
    40   24   25 1
    41   24   26 ar
    42   26   43 1
    43   27   28 am
    44   27   29 2
    45   28   44 1
    46   28   45 1
##########                 Name:     ZINC000450355166
##########          Protonation:                 none
##########               SMILES:   CC(C)[N@@H+](CC[C@H](C)O)C[C@H](O)COC1=C2C=CC=CC2=CC=C1
##########            Long Name:   NO_LONG_NAME
##########          FlexRecCode: 1
##########               Number:                13620
##########   Ligand Source File: /nfs/db/export/3D/EG/ADMO/EGADMO.xahe.db2.gz
##########                 Rank:                    1
##########               Setnum:                   71
##########             Matchnum:                    1
##########                Cloud:                    1
##########        Electrostatic:           -27.791826
##########                 Gist:             0.000000
##########        Van der Waals:           -33.280342
##########  Ligand Polar Desolv:            10.308999
########## Ligand Apolar Desolv:            -4.187119
##########      Internal Energy:             0.000000
##########      Receptor Energy:             0.000000
########## Receptor Desolvation:             0.000000
########## Receptor Hydrophobic:             0.000000
##########         Total Energy:           -54.950287
##########        Ligand Charge:             1.000000
##########            Arbitrary:    +999.9990
##########        Ligand Energy:             0.000000

@<TRIPOS>MOLECULE
 ZINC000450355166      none
   54    55     0     0     0



@<TRIPOS>ATOM
      1 C1        -16.9589    19.7573   -20.4299 C.3        1  LIG1  -0.1900
      2 C2        -17.1207    18.2382   -20.5118 C.3        1  LIG1   0.0100
      3 C3        -15.7598    17.5940   -20.7835 C.3        1  LIG1  -0.1900
      4 N1        -17.6563    17.7334   -19.2404 N.4        1  LIG1  -0.3800
      5 H1        -18.3604    18.3688   -18.8961 H          1  LIG1   0.4200
      6 C4        -18.2541    16.4084   -19.4527 C.3        1  LIG1  -0.0200
      7 C5        -19.6518    16.5699   -20.0539 C.3        1  LIG1  -0.1900
      8 C6        -20.5290    17.3776   -19.0952 C.3        1  LIG1   0.1100
      9 H2        -20.6018    16.8549   -18.1415 H          1  LIG1   0.1100
     10 C7        -21.9267    17.5390   -19.6962 C.3        1  LIG1  -0.1900
     11 O1        -19.9475    18.6666   -18.8887 O.3        1  LIG1  -0.5600
     12 C8        -16.5692    17.6282   -18.2582 C.3        1  LIG1  -0.0400
     13 C9        -17.1585    17.5949   -16.8466 C.3        1  LIG1   0.0900
     14 H3        -17.8202    16.7343   -16.7495 H          1  LIG1   0.1300
     15 O2        -17.8990    18.7942   -16.6113 O.3        1  LIG1  -0.5400
     16 C10       -16.0260    17.4856   -15.8237 C.3        1  LIG1   0.0300
     17 O3        -15.2855    16.2864   -16.0592 O.3        1  LIG1  -0.3000
     18 C11       -14.7029    15.6998   -14.9818 C.ar       1  LIG1   0.1400
     19 C12       -15.0498    14.3833   -14.6164 C.ar       1  LIG1  -0.0700
     20 C13       -15.9970    13.6490   -15.3479 C.ar       1  LIG1  -0.0900
     21 C14       -16.3068    12.3796   -14.9657 C.ar       1  LIG1  -0.1200
     22 C15       -15.6974    11.7954   -13.8569 C.ar       1  LIG1  -0.1000
     23 C16       -14.7753    12.4773   -13.1240 C.ar       1  LIG1  -0.1100
     24 C17       -14.4297    13.7899   -13.4889 C.ar       1  LIG1  -0.0200
     25 C18       -13.4816    14.5248   -12.7570 C.ar       1  LIG1  -0.1300
     26 C19       -13.1694    15.7944   -13.1380 C.ar       1  LIG1  -0.0800
     27 C20       -13.7721    16.3798   -14.2477 C.ar       1  LIG1  -0.2200
     28 H4        -17.9284    20.2161   -20.2363 H          1  LIG1   0.1000
     29 H5        -16.2712    20.0064   -19.6218 H          1  LIG1   0.0800
     30 H6        -16.5617    20.1316   -21.3734 H          1  LIG1   0.0900
     31 H7        -17.8083    17.9891   -21.3201 H          1  LIG1   0.1500
     32 H8        -15.8753    16.5117   -20.8418 H          1  LIG1   0.0900
     33 H9        -15.3625    17.9683   -21.7269 H          1  LIG1   0.0800
     34 H10       -15.0721    17.8430   -19.9752 H          1  LIG1   0.1100
     35 H11       -17.6291    15.8331   -20.1356 H          1  LIG1   0.1400
     36 H12       -18.3270    15.8857   -18.4989 H          1  LIG1   0.1400
     37 H13       -19.5789    17.0926   -21.0076 H          1  LIG1   0.0900
     38 H14       -20.0954    15.5869   -20.2113 H          1  LIG1   0.1100
     39 H15       -22.5517    18.1146   -19.0132 H          1  LIG1   0.0700
     40 H16       -21.8539    18.0618   -20.6499 H          1  LIG1   0.0800
     41 H17       -22.3703    16.5560   -19.8535 H          1  LIG1   0.0600
     42 H18       -19.8520    19.1889   -19.6969 H          1  LIG1   0.3800
     43 H19       -16.0043    16.7137   -18.4379 H          1  LIG1   0.1500
     44 H20       -15.9073    18.4890   -18.3554 H          1  LIG1   0.1400
     45 H21       -18.6344    18.9291   -17.2245 H          1  LIG1   0.3900
     46 H22       -15.3642    18.3463   -15.9209 H          1  LIG1   0.0800
     47 H23       -16.4459    17.4618   -14.8179 H          1  LIG1   0.0800
     48 H24       -16.4776    14.0890   -16.2092 H          1  LIG1   0.1300
     49 H25       -17.0360    11.8171   -15.5298 H          1  LIG1   0.1300
     50 H26       -15.9610    10.7868   -13.5747 H          1  LIG1   0.1300
     51 H27       -14.3115    12.0123   -12.2667 H          1  LIG1   0.1300
     52 H28       -13.0025    14.0844   -11.8951 H          1  LIG1   0.1300
     53 H29       -12.4404    16.3549   -12.5716 H          1  LIG1   0.1300
     54 H30       -13.5062    17.3884   -14.5278 H          1  LIG1   0.1200
@<TRIPOS>BOND
     1    1    2 1
     2    1   28 1
     3    1   29 1
     4    1   30 1
     5    2    3 1
     6    2    4 1
     7    2   31 1
     8    3   32 1
     9    3   33 1
    10    3   34 1
    11    4    5 1
    12    4    6 1
    13    4   12 1
    14    6    7 1
    15    6   35 1
    16    6   36 1
    17    7    8 1
    18    7   37 1
    19    7   38 1
    20    8    9 1
    21    8   10 1
    22    8   11 1
    23   10   39 1
    24   10   40 1
    25   10   41 1
    26   11   42 1
    27   12   13 1
    28   12   43 1
    29   12   44 1
    30   13   14 1
    31   13   15 1
    32   13   16 1
    33   15   45 1
    34   16   17 1
    35   16   46 1
    36   16   47 1
    37   17   18 1
    38   18   27 ar
    39   18   19 ar
    40   19   24 ar
    41   19   20 ar
    42   20   21 ar
    43   20   48 1
    44   21   22 ar
    45   21   49 1
    46   22   23 ar
    47   22   50 1
    48   23   24 ar
    49   23   51 1
    50   24   25 ar
    51   25   26 ar
    52   25   52 1
    53   26   27 ar
    54   26   53 1
    55   27   54 1
##########                 Name:     ZINC000661145608
##########          Protonation:                 none
##########               SMILES:   C1=CN(C[C@H]2CC[N@H+](CCC3=NN=NN3C3=CC=CC=C3)C2)N=N1
##########            Long Name:   NO_LONG_NAME
##########          FlexRecCode: 1
##########               Number:                 3112
##########   Ligand Source File: /nfs/db/export/3D/DC/ADMO/DCADMO.xju.db2.gz
##########                 Rank:                    1
##########               Setnum:                   48
##########             Matchnum:                    1
##########                Cloud:                    1
##########        Electrostatic:           -47.981224
##########                 Gist:             0.000000
##########        Van der Waals:           -29.833027
##########  Ligand Polar Desolv:            27.646641
########## Ligand Apolar Desolv:            -4.820102
##########      Internal Energy:             0.000000
##########      Receptor Energy:             0.000000
########## Receptor Desolvation:             0.000000
########## Receptor Hydrophobic:             0.000000
##########         Total Energy:           -54.987717
##########        Ligand Charge:             1.000000
##########            Arbitrary:    +999.9990
##########        Ligand Energy:             0.000000

@<TRIPOS>MOLECULE
 ZINC000661145608      none
   45    48     0     0     0



@<TRIPOS>ATOM
      1 C1        -17.4499    18.2489   -23.3493 C.2        1  LIG1  -0.0400
      2 C2        -18.7088    18.3514   -22.8623 C.2        1  LIG1  -0.0400
      3 N1        -18.6948    17.7474   -21.6516 N.pl3      1  LIG1  -0.3100
      4 C3        -19.8392    17.6112   -20.7471 C.3        1  LIG1   0.1300
      5 C4        -19.4065    17.9583   -19.3212 C.3        1  LIG1  -0.1200
      6 H1        -19.0368    18.9825   -19.2707 H          1  LIG1   0.1200
      7 C5        -20.5781    17.7485   -18.3261 C.3        1  LIG1  -0.1300
      8 C6        -19.8200    17.4784   -17.0026 C.3        1  LIG1  -0.0200
      9 N2        -18.6373    16.6851   -17.4001 N.4        1  LIG1  -0.3900
     10 H2        -18.8319    15.7023   -17.2808 H          1  LIG1   0.4300
     11 C7        -17.4853    17.0662   -16.5719 C.3        1  LIG1   0.0000
     12 C8        -16.4358    15.9539   -16.6154 C.3        1  LIG1  -0.0700
     13 C9        -15.2540    16.3448   -15.7658 C.2        1  LIG1   0.2300
     14 N3        -14.6673    17.5130   -15.7446 N.2        1  LIG1  -0.3100
     15 N4        -13.6909    17.5141   -14.9103 N.2        1  LIG1  -0.0200
     16 N5        -13.5861    16.3595   -14.3459 N.2        1  LIG1  -0.0500
     17 N6        -14.6080    15.5553   -14.8806 N.pl3      1  LIG1  -0.3200
     18 C10       -14.8902    14.2173   -14.5685 C.ar       1  LIG1   0.1100
     19 C11       -14.6235    13.7287   -13.2969 C.ar       1  LIG1  -0.1200
     20 C12       -14.9023    12.4105   -12.9924 C.ar       1  LIG1  -0.1000
     21 C13       -15.4465    11.5779   -13.9530 C.ar       1  LIG1  -0.0900
     22 C14       -15.7130    12.0617   -15.2204 C.ar       1  LIG1  -0.0900
     23 C15       -15.4420    13.3806   -15.5289 C.ar       1  LIG1  -0.0900
     24 C16       -18.3364    16.9665   -18.8188 C.3        1  LIG1   0.0000
     25 N7        -17.5034    17.3127   -21.4312 N.2        1  LIG1  -0.0900
     26 N8        -16.7371    17.5958   -22.4247 N.2        1  LIG1  -0.2600
     27 H3        -17.0927    18.6177   -24.2994 H          1  LIG1   0.2000
     28 H4        -19.5540    18.8212   -23.3431 H          1  LIG1   0.2000
     29 H5        -20.6332    18.2889   -21.0611 H          1  LIG1   0.1100
     30 H6        -20.2051    16.5848   -20.7760 H          1  LIG1   0.1200
     31 H7        -21.1906    18.6469   -18.2489 H          1  LIG1   0.1300
     32 H8        -21.1838    16.8884   -18.6117 H          1  LIG1   0.1100
     33 H9        -19.5102    18.4176   -16.5441 H          1  LIG1   0.1400
     34 H10       -20.4460    16.9083   -16.3161 H          1  LIG1   0.1400
     35 H11       -17.0520    17.9899   -16.9554 H          1  LIG1   0.1300
     36 H12       -17.8118    17.2177   -15.5431 H          1  LIG1   0.1500
     37 H13       -16.8692    15.0301   -16.2320 H          1  LIG1   0.1400
     38 H14       -16.1092    15.8024   -17.6443 H          1  LIG1   0.1200
     39 H15       -14.1980    14.3784   -12.5464 H          1  LIG1   0.1300
     40 H16       -14.6948    12.0298   -12.0032 H          1  LIG1   0.1400
     41 H17       -15.6637    10.5475   -13.7127 H          1  LIG1   0.1400
     42 H18       -16.1379    11.4089   -15.9687 H          1  LIG1   0.1500
     43 H19       -15.6507    13.7579   -16.5191 H          1  LIG1   0.1400
     44 H20       -18.3872    16.0448   -19.3985 H          1  LIG1   0.1400
     45 H21       -17.3439    17.4084   -18.9069 H          1  LIG1   0.1400
@<TRIPOS>BOND
     1    1   26 1
     2    1    2 2
     3    1   27 1
     4    2    3 1
     5    2   28 1
     6    3    4 1
     7    3   25 1
     8    4    5 1
     9    4   29 1
    10    4   30 1
    11    5    6 1
    12    5   24 1
    13    5    7 1
    14    7    8 1
    15    7   31 1
    16    7   32 1
    17    8    9 1
    18    8   33 1
    19    8   34 1
    20    9   10 1
    21    9   11 1
    22    9   24 1
    23   11   12 1
    24   11   35 1
    25   11   36 1
    26   12   13 1
    27   12   37 1
    28   12   38 1
    29   13   17 1
    30   13   14 2
    31   14   15 1
    32   15   16 2
    33   16   17 1
    34   17   18 1
    35   18   23 ar
    36   18   19 ar
    37   19   20 ar
    38   19   39 1
    39   20   21 ar
    40   20   40 1
    41   21   22 ar
    42   21   41 1
    43   22   23 ar
    44   22   42 1
    45   23   43 1
    46   24   44 1
    47   24   45 1
    48   25   26 2
##########                 Name:     ZINC000189945678
##########          Protonation:                 none
##########               SMILES:   CC1=NN(C2=CC=C(F)C=C2F)C(C)=C1C[NH2+][C@@H]1CCC[C@H]1CCO
##########            Long Name:   NO_LONG_NAME
##########          FlexRecCode: 1
##########               Number:                 3242
##########   Ligand Source File: /nfs/db/export/3D/EG/ADRO/EGADRO.xbao.db2.gz
##########                 Rank:                    1
##########               Setnum:                   56
##########             Matchnum:                    1
##########                Cloud:                    1
##########        Electrostatic:           -40.159073
##########                 Gist:             0.000000
##########        Van der Waals:           -29.943134
##########  Ligand Polar Desolv:            20.318176
########## Ligand Apolar Desolv:            -5.170639
##########      Internal Energy:             0.000000
##########      Receptor Energy:             0.000000
########## Receptor Desolvation:             0.000000
########## Receptor Hydrophobic:             0.000000
##########         Total Energy:           -54.954666
##########        Ligand Charge:             1.000000
##########            Arbitrary:    +999.9990
##########        Ligand Energy:             0.000000

@<TRIPOS>MOLECULE
 ZINC000189945678      none
   51    53     0     0     0



@<TRIPOS>ATOM
      1 C1        -15.4476    18.2686   -17.7334 C.3        1  LIG1  -0.0900
      2 C2        -15.8052    17.2049   -16.7278 C.2        1  LIG1   0.1100
      3 N1        -14.9593    16.4316   -16.0953 N.2        1  LIG1  -0.2600
      4 N2        -15.6880    15.5825   -15.2523 N.pl3      1  LIG1  -0.3000
      5 C3        -15.1515    14.6032   -14.4027 C.ar       1  LIG1   0.0800
      6 C4        -15.5031    13.2713   -14.5685 C.ar       1  LIG1  -0.0600
      7 C5        -14.9740    12.3082   -13.7312 C.ar       1  LIG1  -0.1500
      8 C6        -14.0930    12.6701   -12.7262 C.ar       1  LIG1   0.1600
      9 F1        -13.5772    11.7260   -11.9089 F          1  LIG1  -0.1100
     10 C7        -13.7393    13.9984   -12.5577 C.ar       1  LIG1  -0.1800
     11 C8        -14.2621    14.9652   -13.3968 C.ar       1  LIG1   0.1600
     12 F2        -13.9174    16.2612   -13.2330 F          1  LIG1  -0.1100
     13 C9        -16.9994    15.8742   -15.4019 C.2        1  LIG1   0.1500
     14 C10       -18.1457    15.2059   -14.6873 C.3        1  LIG1  -0.1200
     15 C11       -17.0978    16.8778   -16.3048 C.2        1  LIG1  -0.3200
     16 C12       -18.3751    17.5227   -16.7776 C.3        1  LIG1   0.0900
     17 N3        -18.8862    16.7966   -17.9479 N.4        1  LIG1  -0.5100
     18 H1        -18.2006    16.8260   -18.6877 H          1  LIG1   0.4200
     19 H2        -19.0675    15.8367   -17.6955 H          1  LIG1   0.4300
     20 C13       -20.1312    17.4252   -18.4091 C.3        1  LIG1   0.0200
     21 H3        -20.0468    18.5101   -18.3467 H          1  LIG1   0.1500
     22 C14       -21.3151    16.9388   -17.5548 C.3        1  LIG1  -0.1400
     23 C15       -22.2935    16.2350   -18.5176 C.3        1  LIG1  -0.1300
     24 C16       -21.9729    16.8506   -19.9022 C.3        1  LIG1  -0.1200
     25 C17       -20.4310    17.0009   -19.8616 C.3        1  LIG1  -0.1100
     26 H4        -19.9490    16.0499   -20.0880 H          1  LIG1   0.1000
     27 C18       -19.9722    18.0798   -20.8447 C.3        1  LIG1  -0.1200
     28 C19       -18.4655    18.2994   -20.6943 C.3        1  LIG1   0.0700
     29 O1        -17.7762    17.0786   -20.9710 O.3        1  LIG1  -0.5700
     30 H5        -14.3657    18.2969   -17.8633 H          1  LIG1   0.0900
     31 H6        -15.9222    18.0406   -18.6879 H          1  LIG1   0.0900
     32 H7        -15.7962    19.2378   -17.3768 H          1  LIG1   0.0800
     33 H8        -16.1904    12.9875   -15.3517 H          1  LIG1   0.1500
     34 H9        -15.2482    11.2716   -13.8604 H          1  LIG1   0.1600
     35 H10       -13.0516    14.2788   -11.7735 H          1  LIG1   0.1700
     36 H11       -19.0858    15.6522   -15.0117 H          1  LIG1   0.1000
     37 H12       -18.1488    14.1414   -14.9215 H          1  LIG1   0.1000
     38 H13       -18.0315    15.3409   -13.6117 H          1  LIG1   0.0900
     39 H14       -19.1158    17.4907   -15.9786 H          1  LIG1   0.1400
     40 H15       -18.1794    18.5596   -17.0504 H          1  LIG1   0.1400
     41 H16       -20.9657    16.2363   -16.7981 H          1  LIG1   0.0900
     42 H17       -21.8055    17.7878   -17.0786 H          1  LIG1   0.1000
     43 H18       -22.1127    15.1601   -18.5270 H          1  LIG1   0.0800
     44 H19       -23.3248    16.4468   -18.2355 H          1  LIG1   0.0900
     45 H20       -22.2745    16.1767   -20.7039 H          1  LIG1   0.0900
     46 H21       -22.4524    17.8234   -20.0128 H          1  LIG1   0.0900
     47 H22       -20.1929    17.7608   -21.8634 H          1  LIG1   0.0900
     48 H23       -20.4979    19.0110   -20.6337 H          1  LIG1   0.0700
     49 H24       -18.1387    19.0680   -21.3948 H          1  LIG1   0.0500
     50 H25       -18.2448    18.6186   -19.6758 H          1  LIG1   0.0500
     51 H26       -18.0181    16.3487   -20.3845 H          1  LIG1   0.3900
@<TRIPOS>BOND
     1    1    2 1
     2    1   30 1
     3    1   31 1
     4    1   32 1
     5    2   15 1
     6    2    3 2
     7    3    4 1
     8    4    5 1
     9    4   13 1
    10    5   11 ar
    11    5    6 ar
    12    6    7 ar
    13    6   33 1
    14    7    8 ar
    15    7   34 1
    16    8    9 1
    17    8   10 ar
    18   10   11 ar
    19   10   35 1
    20   11   12 1
    21   13   14 1
    22   13   15 2
    23   14   36 1
    24   14   37 1
    25   14   38 1
    26   15   16 1
    27   16   17 1
    28   16   39 1
    29   16   40 1
    30   17   18 1
    31   17   19 1
    32   17   20 1
    33   20   21 1
    34   20   25 1
    35   20   22 1
    36   22   23 1
    37   22   41 1
    38   22   42 1
    39   23   24 1
    40   23   43 1
    41   23   44 1
    42   24   25 1
    43   24   45 1
    44   24   46 1
    45   25   26 1
    46   25   27 1
    47   27   28 1
    48   27   47 1
    49   27   48 1
    50   28   29 1
    51   28   49 1
    52   28   50 1
    53   29   51 1
##########                 Name:     ZINC000093838435
##########          Protonation:                 none
##########               SMILES:   CC1=CC=C(O)C(C[N@@H+]2CC[C@H](OC3=CC=CC=C3Cl)C2)=N1
##########            Long Name:   NO_LONG_NAME
##########          FlexRecCode: 1
##########               Number:                 9125
##########   Ligand Source File: /nfs/db/export/3D/DG/ADRO/DGADRO.xauv.db2.gz
##########                 Rank:                    1
##########               Setnum:                  131
##########             Matchnum:                    1
##########                Cloud:                    1
##########        Electrostatic:           -33.564541
##########                 Gist:             0.000000
##########        Van der Waals:           -29.431217
##########  Ligand Polar Desolv:            12.892632
########## Ligand Apolar Desolv:            -4.913708
##########      Internal Energy:             0.000000
##########      Receptor Energy:             0.000000
########## Receptor Desolvation:             0.000000
########## Receptor Hydrophobic:             0.000000
##########         Total Energy:           -55.016834
##########        Ligand Charge:             1.000000
##########            Arbitrary:    +999.9990
##########        Ligand Energy:             0.000000

@<TRIPOS>MOLECULE
 ZINC000093838435      none
   42    44     0     0     0



@<TRIPOS>ATOM
      1 C1        -21.6875    16.3141   -20.3014 C.3        1  LIG1  -0.1100
      2 C2        -20.3389    16.9602   -20.4889 C.ar       1  LIG1   0.1400
      3 C3        -20.2157    18.0486   -21.3318 C.ar       1  LIG1  -0.1200
      4 C4        -18.9724    18.6376   -21.4987 C.ar       1  LIG1  -0.0900
      5 C5        -17.8903    18.1053   -20.8055 C.ar       1  LIG1   0.0800
      6 O1        -16.6521    18.6498   -20.9374 O.3        1  LIG1  -0.4800
      7 C6        -18.0933    17.0108   -19.9773 C.ar       1  LIG1   0.0400
      8 C7        -16.9305    16.4234   -19.2194 C.3        1  LIG1   0.0600
      9 N1        -17.3327    16.1629   -17.8308 N.4        1  LIG1  -0.3900
     10 H1        -18.2720    15.7955   -17.7984 H          1  LIG1   0.4300
     11 C8        -17.2315    17.4030   -17.0191 C.3        1  LIG1  -0.0100
     12 C9        -17.1195    16.9059   -15.5618 C.3        1  LIG1  -0.1700
     13 C10       -16.5609    15.4722   -15.6690 C.3        1  LIG1   0.0700
     14 H2        -17.2687    14.7576   -15.2489 H          1  LIG1   0.1100
     15 O2        -15.3035    15.3778   -14.9965 O.3        1  LIG1  -0.2900
     16 C11       -14.9827    14.1735   -14.4541 C.ar       1  LIG1   0.1200
     17 C12       -15.4571    13.0042   -15.0290 C.ar       1  LIG1  -0.2000
     18 C13       -15.1292    11.7810   -14.4759 C.ar       1  LIG1  -0.0700
     19 C14       -14.3292    11.7217   -13.3503 C.ar       1  LIG1  -0.1300
     20 C15       -13.8542    12.8858   -12.7743 C.ar       1  LIG1  -0.0700
     21 C16       -14.1745    14.1116   -13.3267 C.ar       1  LIG1  -0.0600
     22 Cl1       -13.5782    15.5729   -12.6036 Cl         1  LIG1  -0.0500
     23 C17       -16.3839    15.2208   -17.1831 C.3        1  LIG1   0.0000
     24 N2        -19.2934    16.4829   -19.8422 N.ar       1  LIG1  -0.4500
     25 H3        -22.4277    16.8358   -20.9081 H          1  LIG1   0.0900
     26 H4        -21.6360    15.2699   -20.6094 H          1  LIG1   0.0900
     27 H5        -21.9741    16.3695   -19.2512 H          1  LIG1   0.0900
     28 H6        -21.0780    18.4352   -21.8545 H          1  LIG1   0.1600
     29 H7        -18.8467    19.4890   -22.1514 H          1  LIG1   0.1600
     30 H8        -16.6175    19.4077   -21.5367 H          1  LIG1   0.3900
     31 H9        -16.6247    15.4894   -19.6905 H          1  LIG1   0.1500
     32 H10       -16.0974    17.1260   -19.2307 H          1  LIG1   0.1500
     33 H11       -16.3418    17.9679   -17.2975 H          1  LIG1   0.1400
     34 H12       -18.1255    18.0138   -17.1450 H          1  LIG1   0.1300
     35 H13       -16.4339    17.5383   -14.9977 H          1  LIG1   0.1300
     36 H14       -18.1017    16.8952   -15.0890 H          1  LIG1   0.1100
     37 H15       -16.0828    13.0495   -15.9081 H          1  LIG1   0.1300
     38 H16       -15.4987    10.8702   -14.9236 H          1  LIG1   0.1400
     39 H17       -14.0749    10.7644   -12.9195 H          1  LIG1   0.1400
     40 H18       -13.2293    12.8368   -11.8949 H          1  LIG1   0.1500
     41 H19       -16.6386    14.1902   -17.4298 H          1  LIG1   0.1500
     42 H20       -15.3617    15.4444   -17.4886 H          1  LIG1   0.1500
@<TRIPOS>BOND
     1    1    2 1
     2    1   25 1
     3    1   26 1
     4    1   27 1
     5    2   24 ar
     6    2    3 ar
     7    3    4 ar
     8    3   28 1
     9    4    5 ar
    10    4   29 1
    11    5    6 1
    12    5    7 ar
    13    6   30 1
    14    7    8 1
    15    7   24 ar
    16    8    9 1
    17    8   31 1
    18    8   32 1
    19    9   10 1
    20    9   23 1
    21    9   11 1
    22   11   12 1
    23   11   33 1
    24   11   34 1
    25   12   13 1
    26   12   35 1
    27   12   36 1
    28   13   14 1
    29   13   15 1
    30   13   23 1
    31   15   16 1
    32   16   21 ar
    33   16   17 ar
    34   17   18 ar
    35   17   37 1
    36   18   19 ar
    37   18   38 1
    38   19   20 ar
    39   19   39 1
    40   20   21 ar
    41   20   40 1
    42   21   22 1
    43   23   41 1
    44   23   42 1
##########                 Name:     ZINC000467414616
##########          Protonation:                 none
##########               SMILES:   C[C@H]([NH2+][C@@H](CO)C1=CC=CC(Cl)=C1F)C1=CC=C(N2C=NN=N2)C=C1
##########            Long Name:   NO_LONG_NAME
##########          FlexRecCode: 1
##########               Number:                 7788
##########   Ligand Source File: /nfs/db/export/3D/FF/ADMO/FFADMO.xaaa.db2.gz
##########                 Rank:                    1
##########               Setnum:                  399
##########             Matchnum:                    1
##########                Cloud:                    1
##########        Electrostatic:           -46.335838
##########                 Gist:             0.000000
##########        Van der Waals:           -28.751343
##########  Ligand Polar Desolv:            23.500484
########## Ligand Apolar Desolv:            -3.422688
##########      Internal Energy:             0.000000
##########      Receptor Energy:             0.000000
########## Receptor Desolvation:             0.000000
########## Receptor Hydrophobic:             0.000000
##########         Total Energy:           -55.009384
##########        Ligand Charge:             1.000000
##########            Arbitrary:    +999.9990
##########        Ligand Energy:             0.000000

@<TRIPOS>MOLECULE
 ZINC000467414616      none
   43    45     0     0     0



@<TRIPOS>ATOM
      1 C1        -18.7307    17.2568   -15.6799 C.3        1  LIG1  -0.1800
      2 C2        -17.5008    17.2054   -16.5888 C.3        1  LIG1   0.0800
      3 H1        -17.2391    18.2156   -16.9034 H          1  LIG1   0.1500
      4 N1        -17.7997    16.3864   -17.7711 N.4        1  LIG1  -0.5100
      5 H2        -18.0420    15.4512   -17.4800 H          1  LIG1   0.4400
      6 H3        -18.5734    16.7929   -18.2750 H          1  LIG1   0.4300
      7 C3        -16.6189    16.3369   -18.6437 C.3        1  LIG1   0.0800
      8 H4        -15.7202    16.2429   -18.0340 H          1  LIG1   0.1700
      9 C4        -16.7274    15.1325   -19.5810 C.3        1  LIG1   0.0500
     10 O1        -16.7993    13.9326   -18.8083 O.3        1  LIG1  -0.5700
     11 C5        -16.5430    17.6023   -19.4586 C.ar       1  LIG1  -0.1500
     12 C6        -15.4404    18.4284   -19.3510 C.ar       1  LIG1  -0.0900
     13 C7        -15.3696    19.5894   -20.0986 C.ar       1  LIG1  -0.0900
     14 C8        -16.4015    19.9259   -20.9544 C.ar       1  LIG1  -0.0600
     15 C9        -17.5065    19.1010   -21.0637 C.ar       1  LIG1  -0.0600
     16 Cl1       -18.8030    19.5234   -22.1381 Cl         1  LIG1  -0.0200
     17 C10       -17.5753    17.9344   -20.3195 C.ar       1  LIG1   0.1400
     18 F1        -18.6537    17.1275   -20.4248 F          1  LIG1  -0.1200
     19 C11       -16.3450    16.5982   -15.8362 C.ar       1  LIG1  -0.1400
     20 C12       -16.4460    15.3129   -15.3364 C.ar       1  LIG1  -0.1000
     21 C13       -15.3883    14.7538   -14.6462 C.ar       1  LIG1  -0.0900
     22 C14       -14.2231    15.4834   -14.4544 C.ar       1  LIG1   0.1700
     23 N2        -13.1471    14.9181   -13.7543 N.pl3      1  LIG1  -0.3500
     24 C15       -13.2036    13.9960   -12.7690 C.2        1  LIG1   0.2400
     25 N3        -11.9746    13.7493   -12.3975 N.2        1  LIG1  -0.3200
     26 N4        -11.1451    14.4523   -13.0808 N.2        1  LIG1  -0.0100
     27 N5        -11.7783    15.1854   -13.9319 N.2        1  LIG1  -0.0700
     28 C16       -14.1246    16.7735   -14.9574 C.ar       1  LIG1  -0.1100
     29 C17       -15.1835    17.3254   -15.6516 C.ar       1  LIG1  -0.0600
     30 H5        -18.9924    16.2464   -15.3653 H          1  LIG1   0.0900
     31 H6        -18.5089    17.8646   -14.8027 H          1  LIG1   0.1100
     32 H7        -19.5667    17.6959   -16.2243 H          1  LIG1   0.0900
     33 H8        -17.6260    15.2263   -20.1907 H          1  LIG1   0.1000
     34 H9        -15.8513    15.0958   -20.2285 H          1  LIG1   0.0800
     35 H10       -17.5564    13.8961   -18.2079 H          1  LIG1   0.4100
     36 H11       -14.6336    18.1673   -18.6822 H          1  LIG1   0.1300
     37 H12       -14.5074    20.2341   -20.0136 H          1  LIG1   0.1500
     38 H13       -16.3453    20.8330   -21.5376 H          1  LIG1   0.1600
     39 H14       -17.3530    14.7457   -15.4856 H          1  LIG1   0.1300
     40 H15       -15.4679    13.7499   -14.2557 H          1  LIG1   0.1600
     41 H16       -14.0977    13.5466   -12.3630 H          1  LIG1   0.2400
     42 H17       -13.2194    17.3438   -14.8093 H          1  LIG1   0.1500
     43 H18       -15.1074    18.3289   -16.0434 H          1  LIG1   0.1500
@<TRIPOS>BOND
     1    1    2 1
     2    1   30 1
     3    1   31 1
     4    1   32 1
     5    2    3 1
     6    2    4 1
     7    2   19 1
     8    4    5 1
     9    4    6 1
    10    4    7 1
    11    7    8 1
    12    7    9 1
    13    7   11 1
    14    9   10 1
    15    9   33 1
    16    9   34 1
    17   10   35 1
    18   11   17 ar
    19   11   12 ar
    20   12   13 ar
    21   12   36 1
    22   13   14 ar
    23   13   37 1
    24   14   15 ar
    25   14   38 1
    26   15   16 1
    27   15   17 ar
    28   17   18 1
    29   19   29 ar
    30   19   20 ar
    31   20   21 ar
    32   20   39 1
    33   21   22 ar
    34   21   40 1
    35   22   23 1
    36   22   28 ar
    37   23   27 1
    38   23   24 1
    39   24   25 2
    40   24   41 1
    41   25   26 1
    42   26   27 2
    43   28   29 ar
    44   28   42 1
    45   29   43 1
##########                 Name:     ZINC000449604818
##########          Protonation:                 none
##########               SMILES:   CNC(=O)C[C@H](C)[NH2+]CC1=CC2=C(C)C(C)=CC=C2N1
##########            Long Name:   NO_LONG_NAME
##########          FlexRecCode: 1
##########               Number:                 6083
##########   Ligand Source File: /nfs/db/export/3D/CE/ADRO/CEADRO.xbbp.db2.gz
##########                 Rank:                    1
##########               Setnum:                   16
##########             Matchnum:                    1
##########                Cloud:                    1
##########        Electrostatic:           -37.407135
##########                 Gist:             0.000000
##########        Van der Waals:           -28.661659
##########  Ligand Polar Desolv:            14.497082
########## Ligand Apolar Desolv:            -3.400319
##########      Internal Energy:             0.000000
##########      Receptor Energy:             0.000000
########## Receptor Desolvation:             0.000000
########## Receptor Hydrophobic:             0.000000
##########         Total Energy:           -54.972031
##########        Ligand Charge:             1.000000
##########            Arbitrary:    +999.9990
##########        Ligand Energy:             0.000000

@<TRIPOS>MOLECULE
 ZINC000449604818      none
   44    45     0     0     0



@<TRIPOS>ATOM
      1 C1        -23.1814    18.3611   -20.5948 C.3        1  LIG1   0.0800
      2 N1        -22.4101    17.7866   -19.4896 N.am       1  LIG1  -0.7100
      3 C2        -21.0977    18.0677   -19.3662 C.2        1  LIG1   0.5000
      4 O1        -20.5555    18.7963   -20.1699 O.2        1  LIG1  -0.5500
      5 C3        -20.3043    17.4768   -18.2294 C.3        1  LIG1  -0.1700
      6 C4        -18.8499    17.2890   -18.6660 C.3        1  LIG1   0.0400
      7 H1        -18.4259    18.2544   -18.9418 H          1  LIG1   0.1500
      8 C5        -18.7967    16.3460   -19.8696 C.3        1  LIG1  -0.1900
      9 N2        -18.0765    16.7129   -17.5580 N.4        1  LIG1  -0.5100
     10 H2        -18.3658    17.1374   -16.6895 H          1  LIG1   0.4400
     11 H3        -18.2385    15.7178   -17.5164 H          1  LIG1   0.4200
     12 C6        -16.6462    16.9675   -17.7749 C.3        1  LIG1   0.0700
     13 C7        -15.8526    16.3766   -16.6381 C.2        1  LIG1  -0.0200
     14 C8        -16.0411    15.1520   -16.1217 C.2        1  LIG1  -0.1200
     15 C9        -15.0622    14.9861   -15.0445 C.ar       1  LIG1  -0.1200
     16 C10       -14.7665    13.9538   -14.1528 C.ar       1  LIG1  -0.0300
     17 C11       -15.5502    12.6673   -14.1984 C.3        1  LIG1  -0.1200
     18 C12       -13.7635    14.1136   -13.2385 C.ar       1  LIG1  -0.1100
     19 C13       -13.4447    12.9986   -12.2760 C.3        1  LIG1  -0.1200
     20 C14       -13.0358    15.2944   -13.1895 C.ar       1  LIG1  -0.0700
     21 C15       -13.3109    16.3261   -14.0604 C.ar       1  LIG1  -0.1400
     22 C16       -14.3277    16.1853   -14.9988 C.ar       1  LIG1   0.1200
     23 N3        -14.8296    17.0066   -15.9835 N.pl3      1  LIG1  -0.5900
     24 H4        -24.2158    18.0235   -20.5300 H          1  LIG1   0.0900
     25 H5        -23.1499    19.4490   -20.5328 H          1  LIG1   0.0700
     26 H6        -22.7525    18.0386   -21.5435 H          1  LIG1   0.0700
     27 H7        -22.8438    17.2038   -18.8469 H          1  LIG1   0.4100
     28 H8        -20.3423    18.1487   -17.3719 H          1  LIG1   0.1200
     29 H9        -20.7284    16.5114   -17.9535 H          1  LIG1   0.1400
     30 H10       -17.7606    16.2121   -20.1808 H          1  LIG1   0.0800
     31 H11       -19.2208    15.3805   -19.5940 H          1  LIG1   0.1100
     32 H12       -19.3704    16.7736   -20.6919 H          1  LIG1   0.0900
     33 H13       -16.3337    16.5090   -18.7130 H          1  LIG1   0.1400
     34 H14       -16.4712    18.0425   -17.8199 H          1  LIG1   0.1500
     35 H15       -16.7754    14.4267   -16.4398 H          1  LIG1   0.1600
     36 H16       -15.1774    11.9874   -13.4323 H          1  LIG1   0.0800
     37 H17       -16.6042    12.8773   -14.0161 H          1  LIG1   0.0800
     38 H18       -15.4359    12.2068   -15.1797 H          1  LIG1   0.0700
     39 H19       -12.6234    13.3025   -11.6271 H          1  LIG1   0.0700
     40 H20       -14.3241    12.7788   -11.6705 H          1  LIG1   0.0700
     41 H21       -13.1561    12.1080   -12.8343 H          1  LIG1   0.0700
     42 H22       -12.2460    15.4058   -12.4613 H          1  LIG1   0.1300
     43 H23       -12.7391    17.2412   -14.0141 H          1  LIG1   0.1300
     44 H24       -14.5067    17.8995   -16.1825 H          1  LIG1   0.4200
@<TRIPOS>BOND
     1    1    2 1
     2    1   24 1
     3    1   25 1
     4    1   26 1
     5    2    3 am
     6    2   27 1
     7    3    4 2
     8    3    5 1
     9    5    6 1
    10    5   28 1
    11    5   29 1
    12    6    7 1
    13    6    8 1
    14    6    9 1
    15    8   30 1
    16    8   31 1
    17    8   32 1
    18    9   10 1
    19    9   11 1
    20    9   12 1
    21   12   13 1
    22   12   33 1
    23   12   34 1
    24   13   23 1
    25   13   14 2
    26   14   15 1
    27   14   35 1
    28   15   22 ar
    29   15   16 ar
    30   16   17 1
    31   16   18 ar
    32   17   36 1
    33   17   37 1
    34   17   38 1
    35   18   19 1
    36   18   20 ar
    37   19   39 1
    38   19   40 1
    39   19   41 1
    40   20   21 ar
    41   20   42 1
    42   21   22 ar
    43   21   43 1
    44   22   23 1
    45   23   44 1
##########                 Name:     ZINC000644941119
##########          Protonation:                 none
##########               SMILES:   CC[N@H+]1C[C@H](C)[C@H](NC(=O)N[C@@H]2C[C@@]2(F)C2=CC=CC=C2)C1
##########            Long Name:   NO_LONG_NAME
##########          FlexRecCode: 1
##########               Number:                10403
##########   Ligand Source File: /nfs/db/export/3D/DE/ADMO/DEADMO.xakf.db2.gz
##########                 Rank:                    1
##########               Setnum:                   59
##########             Matchnum:                    1
##########                Cloud:                    1
##########        Electrostatic:           -36.383785
##########                 Gist:             0.000000
##########        Van der Waals:           -29.173880
##########  Ligand Polar Desolv:            15.791297
########## Ligand Apolar Desolv:            -5.207459
##########      Internal Energy:             0.000000
##########      Receptor Energy:             0.000000
########## Receptor Desolvation:             0.000000
########## Receptor Hydrophobic:             0.000000
##########         Total Energy:           -54.973824
##########        Ligand Charge:             1.000000
##########            Arbitrary:    +999.9990
##########        Ligand Energy:             0.000000

@<TRIPOS>MOLECULE
 ZINC000644941119      none
   47    49     0     0     0



@<TRIPOS>ATOM
      1 C1        -22.6563    15.6140   -18.1629 C.3        1  LIG1  -0.1900
      2 C2        -22.1262    17.0450   -18.2728 C.3        1  LIG1  -0.0100
      3 N1        -20.6672    17.0152   -18.4418 N.4        1  LIG1  -0.4000
      4 H1        -20.2342    16.5625   -17.6509 H          1  LIG1   0.4200
      5 C3        -20.3129    16.3080   -19.6914 C.3        1  LIG1  -0.0100
      6 C4        -19.0781    17.0173   -20.2775 C.3        1  LIG1  -0.1200
      7 H2        -19.3006    17.4045   -21.2717 H          1  LIG1   0.1300
      8 C5        -17.8909    16.0541   -20.3370 C.3        1  LIG1  -0.1500
      9 C6        -18.7801    18.1800   -19.3031 C.3        1  LIG1   0.1500
     10 H3        -18.4837    19.0751   -19.8500 H          1  LIG1   0.1400
     11 N2        -17.7451    17.7969   -18.3397 N.am       1  LIG1  -0.7500
     12 C7        -16.6191    18.5298   -18.2331 C.2        1  LIG1   0.7100
     13 O1        -16.4623    19.5092   -18.9365 O.2        1  LIG1  -0.5700
     14 N3        -15.6670    18.1773   -17.3468 N.am       1  LIG1  -0.7100
     15 C8        -15.8557    16.9974   -16.4992 C.3        1  LIG1   0.1000
     16 H4        -15.9820    16.0533   -17.0291 H          1  LIG1   0.1600
     17 C9        -16.6292    17.1829   -15.1922 C.3        1  LIG1  -0.1800
     18 C10       -15.1145    16.9629   -15.1612 C.3        1  LIG1   0.0800
     19 F1        -14.3089    18.0606   -14.8405 F          1  LIG1  -0.1700
     20 C11       -14.6154    15.6262   -14.6764 C.ar       1  LIG1  -0.0800
     21 C12       -15.2925    14.4703   -15.0176 C.ar       1  LIG1  -0.1100
     22 C13       -14.8347    13.2441   -14.5729 C.ar       1  LIG1  -0.1100
     23 C14       -13.6994    13.1738   -13.7874 C.ar       1  LIG1  -0.1100
     24 C15       -13.0217    14.3295   -13.4470 C.ar       1  LIG1  -0.1100
     25 C16       -13.4772    15.5553   -13.8951 C.ar       1  LIG1  -0.1000
     26 C17       -20.1408    18.3960   -18.5930 C.3        1  LIG1  -0.0200
     27 H5        -23.7388    15.6361   -18.0376 H          1  LIG1   0.0800
     28 H6        -22.4066    15.0635   -19.0699 H          1  LIG1   0.0800
     29 H7        -22.2009    15.1229   -17.3030 H          1  LIG1   0.1100
     30 H8        -22.5816    17.5361   -19.1329 H          1  LIG1   0.1300
     31 H9        -22.3758    17.5956   -17.3658 H          1  LIG1   0.1300
     32 H10       -20.0748    15.2668   -19.4740 H          1  LIG1   0.1300
     33 H11       -21.1421    16.3624   -20.3969 H          1  LIG1   0.1400
     34 H12       -17.0253    16.5693   -20.7533 H          1  LIG1   0.0800
     35 H13       -17.6564    15.7038   -19.3319 H          1  LIG1   0.0800
     36 H14       -18.1451    15.2026   -20.9683 H          1  LIG1   0.0600
     37 H15       -17.8701    17.0155   -17.7787 H          1  LIG1   0.4000
     38 H16       -14.8566    18.7049   -17.2702 H          1  LIG1   0.4000
     39 H17       -16.9975    18.1827   -14.9630 H          1  LIG1   0.1200
     40 H18       -17.2639    16.3606   -14.8621 H          1  LIG1   0.1300
     41 H19       -16.1795    14.5253   -15.6312 H          1  LIG1   0.1300
     42 H20       -15.3641    12.3412   -14.8389 H          1  LIG1   0.1300
     43 H21       -13.3420    12.2159   -13.4394 H          1  LIG1   0.1300
     44 H22       -12.1349    14.2745   -12.8330 H          1  LIG1   0.1300
     45 H23       -12.9477    16.4583   -13.6293 H          1  LIG1   0.1300
     46 H24       -20.8076    18.9949   -19.2131 H          1  LIG1   0.1500
     47 H25       -19.9965    18.8632   -17.6189 H          1  LIG1   0.1400
@<TRIPOS>BOND
     1    1    2 1
     2    1   27 1
     3    1   28 1
     4    1   29 1
     5    2    3 1
     6    2   30 1
     7    2   31 1
     8    3    4 1
     9    3   26 1
    10    3    5 1
    11    5    6 1
    12    5   32 1
    13    5   33 1
    14    6    7 1
    15    6    8 1
    16    6    9 1
    17    8   34 1
    18    8   35 1
    19    8   36 1
    20    9   10 1
    21    9   11 1
    22    9   26 1
    23   11   12 am
    24   11   37 1
    25   12   13 2
    26   12   14 am
    27   14   15 1
    28   14   38 1
    29   15   16 1
    30   15   18 1
    31   15   17 1
    32   17   18 1
    33   17   39 1
    34   17   40 1
    35   18   19 1
    36   18   20 1
    37   20   25 ar
    38   20   21 ar
    39   21   22 ar
    40   21   41 1
    41   22   23 ar
    42   22   42 1
    43   23   24 ar
    44   23   43 1
    45   24   25 ar
    46   24   44 1
    47   25   45 1
    48   26   46 1
    49   26   47 1
##########                 Name:     ZINC000449179598
##########          Protonation:                 none
##########               SMILES:   C[C@@H](C[NH2+]CC1=CC=NC=C1F)SC1=CC=CC=C1
##########            Long Name:   NO_LONG_NAME
##########          FlexRecCode: 1
##########               Number:                 2057
##########   Ligand Source File: /nfs/db/export/3D/CG/ADRO/CGADRO.xaej.db2.gz
##########                 Rank:                    1
##########               Setnum:                   79
##########             Matchnum:                    1
##########                Cloud:                    1
##########        Electrostatic:           -39.092552
##########                 Gist:             0.000000
##########        Van der Waals:           -26.894999
##########  Ligand Polar Desolv:            15.458363
########## Ligand Apolar Desolv:            -4.478394
##########      Internal Energy:             0.000000
##########      Receptor Energy:             0.000000
########## Receptor Desolvation:             0.000000
########## Receptor Hydrophobic:             0.000000
##########         Total Energy:           -55.007580
##########        Ligand Charge:             1.000000
##########            Arbitrary:    +999.9990
##########        Ligand Energy:             0.000000

@<TRIPOS>MOLECULE
 ZINC000449179598      none
   37    38     0     0     0



@<TRIPOS>ATOM
      1 C1        -17.1459    16.1067   -15.7072 C.3        1  LIG1  -0.1600
      2 C2        -16.4335    16.8779   -16.8203 C.3        1  LIG1  -0.1200
      3 H1        -15.3636    16.6742   -16.7760 H          1  LIG1   0.1200
      4 C3        -16.9813    16.4351   -18.1785 C.3        1  LIG1   0.0100
      5 N1        -18.4232    16.7096   -18.2380 N.4        1  LIG1  -0.5100
      6 H2        -18.8930    16.2010   -17.5041 H          1  LIG1   0.4300
      7 H3        -18.5826    17.6986   -18.1172 H          1  LIG1   0.4300
      8 C4        -18.9491    16.2846   -19.5422 C.3        1  LIG1   0.0500
      9 C5        -20.4283    16.5661   -19.6033 C.ar       1  LIG1  -0.1500
     10 C6        -21.3488    15.6189   -19.1836 C.ar       1  LIG1  -0.1100
     11 C7        -22.6978    15.9125   -19.2538 C.ar       1  LIG1   0.1100
     12 N2        -23.1128    17.0765   -19.7133 N.ar       1  LIG1  -0.4300
     13 C8        -22.2676    18.0027   -20.1217 C.ar       1  LIG1   0.0900
     14 C9        -20.9016    17.7832   -20.0760 C.ar       1  LIG1   0.0700
     15 F1        -20.0408    18.7360   -20.4958 F          1  LIG1  -0.1200
     16 S1        -16.7203    18.6559   -16.6030 S.3        1  LIG1  -0.1200
     17 C10       -15.4146    19.3846   -17.5347 C.ar       1  LIG1  -0.0900
     18 C11       -15.5992    19.6792   -18.8804 C.ar       1  LIG1  -0.1300
     19 C12       -14.5736    20.2502   -19.6075 C.ar       1  LIG1  -0.1000
     20 C13       -13.3638    20.5293   -18.9982 C.ar       1  LIG1  -0.1100
     21 C14       -13.1762    20.2370   -17.6595 C.ar       1  LIG1  -0.1000
     22 C15       -14.1992    19.6717   -16.9246 C.ar       1  LIG1  -0.0900
     23 H4        -18.2157    16.3102   -15.7514 H          1  LIG1   0.0800
     24 H5        -16.9736    15.0383   -15.8377 H          1  LIG1   0.0800
     25 H6        -16.7556    16.4221   -14.7395 H          1  LIG1   0.0800
     26 H7        -16.4738    16.9844   -18.9715 H          1  LIG1   0.1500
     27 H8        -16.8091    15.3667   -18.3090 H          1  LIG1   0.1500
     28 H9        -18.4416    16.8340   -20.3352 H          1  LIG1   0.1500
     29 H10       -18.7769    15.2163   -19.6728 H          1  LIG1   0.1500
     30 H11       -21.0163    14.6630   -18.8067 H          1  LIG1   0.1600
     31 H12       -23.4208    15.1791   -18.9285 H          1  LIG1   0.1800
     32 H13       -22.6451    18.9442   -20.4923 H          1  LIG1   0.1800
     33 H14       -16.5436    19.4613   -19.3569 H          1  LIG1   0.1200
     34 H15       -14.7163    20.4791   -20.6533 H          1  LIG1   0.1300
     35 H16       -12.5634    20.9761   -19.5693 H          1  LIG1   0.1300
     36 H17       -12.2299    20.4560   -17.1872 H          1  LIG1   0.1400
     37 H18       -14.0522    19.4441   -15.8792 H          1  LIG1   0.1300
@<TRIPOS>BOND
     1    1    2 1
     2    1   23 1
     3    1   24 1
     4    1   25 1
     5    2    3 1
     6    2    4 1
     7    2   16 1
     8    4    5 1
     9    4   26 1
    10    4   27 1
    11    5    6 1
    12    5    7 1
    13    5    8 1
    14    8    9 1
    15    8   28 1
    16    8   29 1
    17    9   14 ar
    18    9   10 ar
    19   10   11 ar
    20   10   30 1
    21   11   12 ar
    22   11   31 1
    23   12   13 ar
    24   13   14 ar
    25   13   32 1
    26   14   15 1
    27   16   17 1
    28   17   22 ar
    29   17   18 ar
    30   18   19 ar
    31   18   33 1
    32   19   20 ar
    33   19   34 1
    34   20   21 ar
    35   20   35 1
    36   21   22 ar
    37   21   36 1
    38   22   37 1
##########                 Name:     ZINC000552325470
##########          Protonation:                 none
##########               SMILES:   CC[C@@H](CC1=CC=CC=C1)[NH2+]CCCC1=CC=CC(C)=N1
##########            Long Name:   NO_LONG_NAME
##########          FlexRecCode: 1
##########               Number:                 6492
##########   Ligand Source File: /nfs/db/export/3D/CH/ADRO/CHADRO.xgx.db2.gz
##########                 Rank:                    1
##########               Setnum:                   82
##########             Matchnum:                    1
##########                Cloud:                    1
##########        Electrostatic:           -30.080996
##########                 Gist:             0.000000
##########        Van der Waals:           -28.846781
##########  Ligand Polar Desolv:            10.232524
########## Ligand Apolar Desolv:            -6.298450
##########      Internal Energy:             0.000000
##########      Receptor Energy:             0.000000
########## Receptor Desolvation:             0.000000
########## Receptor Hydrophobic:             0.000000
##########         Total Energy:           -54.993702
##########        Ligand Charge:             1.000000
##########            Arbitrary:    +999.9990
##########        Ligand Energy:             0.000000

@<TRIPOS>MOLECULE
 ZINC000552325470      none
   48    49     0     0     0



@<TRIPOS>ATOM
      1 C1        -16.7206    19.7670   -20.5227 C.3        1  LIG1  -0.1600
      2 C2        -16.4940    18.6073   -19.5506 C.3        1  LIG1  -0.1500
      3 C3        -17.8366    18.1583   -18.9708 C.3        1  LIG1   0.0300
      4 H1        -18.3005    18.9906   -18.4415 H          1  LIG1   0.1400
      5 C4        -18.7548    17.7002   -20.1056 C.3        1  LIG1  -0.1000
      6 C5        -20.0773    17.2578   -19.5344 C.ar       1  LIG1  -0.1300
      7 C6        -20.2613    15.9407   -19.1573 C.ar       1  LIG1  -0.1400
      8 C7        -21.4744    15.5348   -18.6333 C.ar       1  LIG1  -0.1100
      9 C8        -22.5033    16.4461   -18.4860 C.ar       1  LIG1  -0.1000
     10 C9        -22.3189    17.7634   -18.8621 C.ar       1  LIG1  -0.1100
     11 C10       -21.1044    18.1703   -19.3822 C.ar       1  LIG1  -0.1100
     12 N1        -17.6190    17.0448   -18.0374 N.4        1  LIG1  -0.5100
     13 H2        -18.4829    16.5393   -17.9096 H          1  LIG1   0.4300
     14 H3        -16.9181    16.4235   -18.4126 H          1  LIG1   0.4200
     15 C11       -17.1643    17.5720   -16.7439 C.3        1  LIG1  -0.0100
     16 C12       -16.9376    16.4125   -15.7718 C.3        1  LIG1  -0.1400
     17 C13       -15.8747    15.4704   -16.3406 C.3        1  LIG1  -0.0600
     18 C14       -15.6514    14.3283   -15.3832 C.ar       1  LIG1   0.1200
     19 C15       -16.4038    13.1760   -15.5073 C.ar       1  LIG1  -0.1700
     20 C16       -16.1902    12.1306   -14.6215 C.ar       1  LIG1  -0.0700
     21 C17       -15.2235    12.2849   -13.6399 C.ar       1  LIG1  -0.1700
     22 C18       -14.5098    13.4670   -13.5771 C.ar       1  LIG1   0.1400
     23 C19       -13.4562    13.6454   -12.5145 C.3        1  LIG1  -0.1100
     24 N2        -14.7364    14.4381   -14.4397 N.ar       1  LIG1  -0.4900
     25 H4        -15.7640    20.0869   -20.9359 H          1  LIG1   0.0700
     26 H5        -17.3748    19.4408   -21.3313 H          1  LIG1   0.0700
     27 H6        -17.1845    20.5994   -19.9936 H          1  LIG1   0.0800
     28 H7        -16.0300    17.7751   -20.0798 H          1  LIG1   0.0900
     29 H8        -15.8399    18.9337   -18.7421 H          1  LIG1   0.0900
     30 H9        -18.9163    18.5264   -20.7982 H          1  LIG1   0.1200
     31 H10       -18.2909    16.8679   -20.6349 H          1  LIG1   0.1000
     32 H11       -19.4575    15.2287   -19.2725 H          1  LIG1   0.1200
     33 H12       -21.6184    14.5056   -18.3394 H          1  LIG1   0.1300
     34 H13       -23.4513    16.1288   -18.0772 H          1  LIG1   0.1300
     35 H14       -23.1228    18.4754   -18.7473 H          1  LIG1   0.1300
     36 H15       -20.9604    19.1996   -19.6761 H          1  LIG1   0.1300
     37 H16       -16.2310    18.1182   -16.8818 H          1  LIG1   0.1300
     38 H17       -17.9215    18.2432   -16.3386 H          1  LIG1   0.1300
     39 H18       -16.6002    16.8038   -14.8120 H          1  LIG1   0.1000
     40 H19       -17.8707    15.8664   -15.6337 H          1  LIG1   0.0900
     41 H20       -16.2121    15.0792   -17.3004 H          1  LIG1   0.0900
     42 H21       -14.9415    16.0165   -16.4788 H          1  LIG1   0.0900
     43 H22       -17.1490    13.0905   -16.2843 H          1  LIG1   0.1400
     44 H23       -16.7635    11.2184   -14.6943 H          1  LIG1   0.1400
     45 H24       -15.0307    11.4915   -12.9328 H          1  LIG1   0.1400
     46 H25       -13.0003    14.6303   -12.6165 H          1  LIG1   0.0800
     47 H26       -13.9149    13.5577   -11.5297 H          1  LIG1   0.0800
     48 H27       -12.6912    12.8774   -12.6288 H          1  LIG1   0.0800
@<TRIPOS>BOND
     1    1    2 1
     2    1   25 1
     3    1   26 1
     4    1   27 1
     5    2    3 1
     6    2   28 1
     7    2   29 1
     8    3    4 1
     9    3    5 1
    10    3   12 1
    11    5    6 1
    12    5   30 1
    13    5   31 1
    14    6   11 ar
    15    6    7 ar
    16    7    8 ar
    17    7   32 1
    18    8    9 ar
    19    8   33 1
    20    9   10 ar
    21    9   34 1
    22   10   11 ar
    23   10   35 1
    24   11   36 1
    25   12   13 1
    26   12   14 1
    27   12   15 1
    28   15   16 1
    29   15   37 1
    30   15   38 1
    31   16   17 1
    32   16   39 1
    33   16   40 1
    34   17   18 1
    35   17   41 1
    36   17   42 1
    37   18   24 ar
    38   18   19 ar
    39   19   20 ar
    40   19   43 1
    41   20   21 ar
    42   20   44 1
    43   21   22 ar
    44   21   45 1
    45   22   23 1
    46   22   24 ar
    47   23   46 1
    48   23   47 1
    49   23   48 1
##########                 Name:     ZINC000277457152
##########          Protonation:                 none
##########               SMILES:   c1cnc2c(c1)cccc2C[NH2+]C[C@H]1CCCCN1C1CC1
##########            Long Name:   NO_LONG_NAME
##########          FlexRecCode: 1
##########               Number:                 2134
##########   Ligand Source File: /nfs/db/export/3D/CG/ADRO/CGADRO.xbod.db2.gz
##########                 Rank:                    1
##########               Setnum:                   22
##########             Matchnum:                    1
##########                Cloud:                    1
##########        Electrostatic:           -28.682428
##########                 Gist:             0.000000
##########        Van der Waals:           -30.055424
##########  Ligand Polar Desolv:             8.544620
########## Ligand Apolar Desolv:            -4.815920
##########      Internal Energy:             0.000000
##########      Receptor Energy:             0.000000
########## Receptor Desolvation:             0.000000
########## Receptor Hydrophobic:             0.000000
##########         Total Energy:           -55.009155
##########        Ligand Charge:             1.000000
##########            Arbitrary:    +999.9990
##########        Ligand Energy:             0.000000

@<TRIPOS>MOLECULE
 ZINC000277457152      none
   48    51     0     0     0



@<TRIPOS>ATOM
      1 C1        -14.1133    20.3877   -17.1938 C.ar       1  LIG1  -0.1700
      2 C2        -14.6706    19.9660   -18.3987 C.ar       1  LIG1   0.1600
      3 N1        -15.2583    18.7999   -18.5164 N.ar       1  LIG1  -0.5100
      4 C3        -15.3490    17.9600   -17.4807 C.ar       1  LIG1   0.1400
      5 C4        -14.8027    18.3266   -16.2256 C.ar       1  LIG1  -0.1100
      6 C5        -14.1712    19.5775   -16.0955 C.ar       1  LIG1  -0.0400
      7 C6        -14.8998    17.4400   -15.1408 C.ar       1  LIG1  -0.0500
      8 C7        -15.5176    16.2384   -15.3072 C.ar       1  LIG1  -0.1300
      9 C8        -16.0555    15.8758   -16.5406 C.ar       1  LIG1  -0.0400
     10 C9        -15.9798    16.7105   -17.6126 C.ar       1  LIG1  -0.1500
     11 C10       -16.5689    16.2965   -18.9366 C.3        1  LIG1   0.0600
     12 N2        -17.9692    16.7345   -19.0078 N.4        1  LIG1  -0.5000
     13 H1        -18.4935    16.3083   -18.2585 H          1  LIG1   0.4300
     14 H2        -18.0125    17.7387   -18.9198 H          1  LIG1   0.4300
     15 C11       -18.5435    16.3309   -20.2983 C.3        1  LIG1   0.0000
     16 C12       -20.0020    16.7871   -20.3725 C.3        1  LIG1   0.0500
     17 H3        -20.4280    16.4876   -21.3301 H          1  LIG1   0.0900
     18 C13       -20.7970    16.1401   -19.2361 C.3        1  LIG1  -0.1200
     19 C14       -22.2512    16.6151   -19.3023 C.3        1  LIG1  -0.1200
     20 C15       -22.2852    18.1435   -19.2160 C.3        1  LIG1  -0.1200
     21 C16       -21.4469    18.7323   -20.3531 C.3        1  LIG1   0.0500
     22 N3        -20.0647    18.2486   -20.2448 N.3        1  LIG1  -0.5200
     23 C17       -19.1995    18.9010   -21.2367 C.3        1  LIG1  -0.0200
     24 C18       -19.8249    19.2765   -22.5816 C.3        1  LIG1  -0.2100
     25 C19       -19.4831    20.3680   -21.5655 C.3        1  LIG1  -0.1600
     26 H4        -13.6318    21.3524   -17.1294 H          1  LIG1   0.1500
     27 H5        -14.6177    20.6171   -19.2588 H          1  LIG1   0.1700
     28 H6        -13.7441    19.8884   -15.1535 H          1  LIG1   0.1500
     29 H7        -14.4864    17.7099   -14.1802 H          1  LIG1   0.1400
     30 H8        -15.5915    15.5570   -14.4726 H          1  LIG1   0.1400
     31 H9        -16.5405    14.9167   -16.6474 H          1  LIG1   0.1400
     32 H10       -16.0025    16.7569   -19.7461 H          1  LIG1   0.1300
     33 H11       -16.5223    15.2116   -19.0317 H          1  LIG1   0.1400
     34 H12       -17.9773    16.7913   -21.1078 H          1  LIG1   0.1300
     35 H13       -18.4968    15.2461   -20.3934 H          1  LIG1   0.1400
     36 H14       -20.7633    15.0555   -19.3399 H          1  LIG1   0.0900
     37 H15       -20.3634    16.4282   -18.2785 H          1  LIG1   0.0700
     38 H16       -22.6971    16.2933   -20.2434 H          1  LIG1   0.0700
     39 H17       -22.8112    16.1907   -18.4689 H          1  LIG1   0.0800
     40 H18       -23.3147    18.4902   -19.3055 H          1  LIG1   0.0800
     41 H19       -21.8748    18.4631   -18.2582 H          1  LIG1   0.0700
     42 H20       -21.8660    18.4236   -21.3107 H          1  LIG1   0.0500
     43 H21       -21.4574    19.8202   -20.2860 H          1  LIG1   0.0900
     44 H22       -18.1588    18.5770   -21.2382 H          1  LIG1   0.1200
     45 H23       -19.1958    19.1994   -23.4683 H          1  LIG1   0.1000
     46 H24       -20.8784    19.0394   -22.7304 H          1  LIG1   0.1000
     47 H25       -20.3118    20.8492   -21.0458 H          1  LIG1   0.1000
     48 H26       -18.6291    21.0092   -21.7837 H          1  LIG1   0.1100
@<TRIPOS>BOND
     1    1    6 ar
     2    1    2 ar
     3    1   26 1
     4    2    3 ar
     5    2   27 1
     6    3    4 ar
     7    4   10 ar
     8    4    5 ar
     9    5    6 ar
    10    5    7 ar
    11    6   28 1
    12    7    8 ar
    13    7   29 1
    14    8    9 ar
    15    8   30 1
    16    9   10 ar
    17    9   31 1
    18   10   11 1
    19   11   12 1
    20   11   32 1
    21   11   33 1
    22   12   13 1
    23   12   14 1
    24   12   15 1
    25   15   16 1
    26   15   34 1
    27   15   35 1
    28   16   17 1
    29   16   22 1
    30   16   18 1
    31   18   19 1
    32   18   36 1
    33   18   37 1
    34   19   20 1
    35   19   38 1
    36   19   39 1
    37   20   21 1
    38   20   40 1
    39   20   41 1
    40   21   22 1
    41   21   42 1
    42   21   43 1
    43   22   23 1
    44   23   25 1
    45   23   24 1
    46   23   44 1
    47   24   25 1
    48   24   45 1
    49   24   46 1
    50   25   47 1
    51   25   48 1
##########                 Name:     ZINC000419819607
##########          Protonation:                 none
##########               SMILES:   CCC[C@H](O)[C@H](CO)[NH2+]CC1=CC=C(C2=CC=C([N+](=O)[O-])C=C2)O1
##########            Long Name:   NO_LONG_NAME
##########          FlexRecCode: 1
##########               Number:                11564
##########   Ligand Source File: /nfs/db/export/3D/EE/BDRO/EEBDRO.xat.db2.gz
##########                 Rank:                    1
##########               Setnum:                  305
##########             Matchnum:                    1
##########                Cloud:                    1
##########        Electrostatic:           -31.430113
##########                 Gist:             0.000000
##########        Van der Waals:           -34.661674
##########  Ligand Polar Desolv:            15.642443
########## Ligand Apolar Desolv:            -4.573774
##########      Internal Energy:             0.000000
##########      Receptor Energy:             0.000000
########## Receptor Desolvation:             0.000000
########## Receptor Hydrophobic:             0.000000
##########         Total Energy:           -55.023121
##########        Ligand Charge:             1.000000
##########            Arbitrary:    +999.9990
##########        Ligand Energy:             0.000000

@<TRIPOS>MOLECULE
 ZINC000419819607      none
   47    48     0     0     0



@<TRIPOS>ATOM
      1 C1        -23.4099    15.7328   -18.8742 C.3        1  LIG1  -0.1600
      2 C2        -22.3344    16.0163   -19.9249 C.3        1  LIG1  -0.1200
      3 C3        -21.0782    16.5542   -19.2365 C.3        1  LIG1  -0.1700
      4 C4        -20.0028    16.8378   -20.2871 C.3        1  LIG1   0.1000
      5 H1        -20.4646    17.2797   -21.1699 H          1  LIG1   0.1400
      6 O1        -19.3565    15.6157   -20.6491 O.3        1  LIG1  -0.5100
      7 C5        -18.9706    17.8093   -19.7110 C.3        1  LIG1  -0.0100
      8 H2        -19.4791    18.5719   -19.1213 H          1  LIG1   0.1600
      9 C6        -18.2039    18.4761   -20.8548 C.3        1  LIG1   0.0500
     10 O2        -17.5958    19.6800   -20.3825 O.3        1  LIG1  -0.5600
     11 N1        -18.0306    17.0739   -18.8546 N.4        1  LIG1  -0.5100
     12 H3        -18.5341    16.3845   -18.3168 H          1  LIG1   0.4300
     13 H4        -17.3410    16.6136   -19.4298 H          1  LIG1   0.4300
     14 C7        -17.3612    18.0121   -17.9439 C.3        1  LIG1   0.0900
     15 C8        -16.3968    17.2577   -17.0653 C.2        1  LIG1  -0.1000
     16 C9        -15.1364    17.6364   -16.7762 C.2        1  LIG1  -0.1300
     17 C10       -14.5934    16.6505   -15.9282 C.2        1  LIG1  -0.1800
     18 C11       -15.5624    15.7147   -15.7448 C.2        1  LIG1   0.0700
     19 C12       -15.4425    14.4913   -14.9245 C.ar       1  LIG1   0.0100
     20 C13       -16.1615    13.3446   -15.2666 C.ar       1  LIG1  -0.0900
     21 C14       -16.0451    12.2059   -14.4966 C.ar       1  LIG1  -0.0500
     22 C15       -15.2181    12.1988   -13.3873 C.ar       1  LIG1  -0.0300
     23 N2        -15.0977    10.9731   -12.5659 N.pl3      1  LIG1   0.0200
     24 O3        -15.7259     9.9740   -12.8672 O.2        1  LIG1  -0.1400
     25 O4        -14.3707    10.9638   -11.5887 O.2        1  LIG1  -0.1500
     26 C16       -14.5028    13.3318   -13.0427 C.ar       1  LIG1  -0.0500
     27 C17       -14.6055    14.4754   -13.8075 C.ar       1  LIG1  -0.1000
     28 O5        -16.6526    16.0991   -16.4359 O.3        1  LIG1  -0.1600
     29 H5        -24.3047    15.3496   -19.3645 H          1  LIG1   0.0700
     30 H6        -23.0389    14.9928   -18.1651 H          1  LIG1   0.0500
     31 H7        -23.6521    16.6541   -18.3444 H          1  LIG1   0.0600
     32 H8        -22.0922    15.0950   -20.4547 H          1  LIG1   0.0800
     33 H9        -22.7053    16.7565   -20.6339 H          1  LIG1   0.0700
     34 H10       -21.3205    17.4755   -18.7067 H          1  LIG1   0.0900
     35 H11       -20.7073    15.8141   -18.5274 H          1  LIG1   0.0600
     36 H12       -18.9227    15.1666   -19.9108 H          1  LIG1   0.3600
     37 H13       -17.4322    17.7980   -21.2190 H          1  LIG1   0.1000
     38 H14       -18.8932    18.7111   -21.6658 H          1  LIG1   0.0700
     39 H15       -18.2248    20.3313   -20.0427 H          1  LIG1   0.4100
     40 H16       -16.8171    18.7568   -18.5249 H          1  LIG1   0.1600
     41 H17       -18.1060    18.5092   -17.3225 H          1  LIG1   0.1500
     42 H18       -14.6367    18.5270   -17.1279 H          1  LIG1   0.1700
     43 H19       -13.5994    16.6402   -15.5056 H          1  LIG1   0.1700
     44 H20       -16.8076    13.3490   -16.1320 H          1  LIG1   0.1600
     45 H21       -16.6010    11.3182   -14.7599 H          1  LIG1   0.1700
     46 H22       -13.8593    13.3196   -12.1754 H          1  LIG1   0.1600
     47 H23       -14.0468    15.3592   -13.5374 H          1  LIG1   0.1500
@<TRIPOS>BOND
     1    1    2 1
     2    1   29 1
     3    1   30 1
     4    1   31 1
     5    2    3 1
     6    2   32 1
     7    2   33 1
     8    3    4 1
     9    3   34 1
    10    3   35 1
    11    4    5 1
    12    4    6 1
    13    4    7 1
    14    6   36 1
    15    7    8 1
    16    7    9 1
    17    7   11 1
    18    9   10 1
    19    9   37 1
    20    9   38 1
    21   10   39 1
    22   11   12 1
    23   11   13 1
    24   11   14 1
    25   14   15 1
    26   14   40 1
    27   14   41 1
    28   15   28 1
    29   15   16 2
    30   16   17 1
    31   16   42 1
    32   17   18 2
    33   17   43 1
    34   18   19 1
    35   18   28 1
    36   19   27 ar
    37   19   20 ar
    38   20   21 ar
    39   20   44 1
    40   21   22 ar
    41   21   45 1
    42   22   23 1
    43   22   26 ar
    44   23   24 2
    45   23   25 2
    46   26   27 ar
    47   26   46 1
    48   27   47 1
##########                 Name:     ZINC000154255036
##########          Protonation:                 none
##########               SMILES:   C[C@H](CCC1=CC=C(Cl)S1)[NH2+]C[C@@H](O)CN(C)C
##########            Long Name:   NO_LONG_NAME
##########          FlexRecCode: 1
##########               Number:                10064
##########   Ligand Source File: /nfs/db/export/3D/CE/ADRO/CEADRO.xcgd.db2.gz
##########                 Rank:                    1
##########               Setnum:                   69
##########             Matchnum:                    1
##########                Cloud:                    1
##########        Electrostatic:           -39.424370
##########                 Gist:             0.000000
##########        Van der Waals:           -25.606548
##########  Ligand Polar Desolv:            13.428252
########## Ligand Apolar Desolv:            -2.317264
##########      Internal Energy:             0.000000
##########      Receptor Energy:             0.000000
########## Receptor Desolvation:             0.000000
########## Receptor Hydrophobic:             0.000000
##########         Total Energy:           -53.919926
##########        Ligand Charge:             1.000000
##########            Arbitrary:    +999.9990
##########        Ligand Energy:             0.000000

@<TRIPOS>MOLECULE
 ZINC000154255036      none
   42    42     0     0     0



@<TRIPOS>ATOM
      1 C1        -16.2638    18.0467   -16.7928 C.3        1  LIG1  -0.1800
      2 C2        -17.5019    17.1753   -16.5719 C.3        1  LIG1   0.0300
      3 H1        -18.3215    17.7945   -16.2074 H          1  LIG1   0.1400
      4 C3        -17.1846    16.0905   -15.5406 C.3        1  LIG1  -0.1500
      5 C4        -16.0339    15.2214   -16.0522 C.3        1  LIG1  -0.0600
      6 C5        -15.7213    14.1529   -15.0365 C.2        1  LIG1  -0.2000
      7 C6        -14.8496    14.2760   -14.0350 C.2        1  LIG1  -0.1100
      8 C7        -14.7285    13.1589   -13.2258 C.2        1  LIG1  -0.1200
      9 C8        -15.5033    12.1282   -13.5717 C.2        1  LIG1  -0.1400
     10 Cl1       -15.5663    10.6023   -12.7464 Cl         1  LIG1   0.0000
     11 S1        -16.4562    12.5558   -14.9868 S.3        1  LIG1   0.1500
     12 N1        -17.8904    16.5458   -17.8409 N.4        1  LIG1  -0.5100
     13 H2        -17.0628    16.2533   -18.3386 H          1  LIG1   0.4300
     14 H3        -18.4719    15.7427   -17.6539 H          1  LIG1   0.4300
     15 C9        -18.6373    17.5114   -18.6580 C.3        1  LIG1  -0.0500
     16 C10       -19.0420    16.8559   -19.9799 C.3        1  LIG1   0.0900
     17 H4        -18.1480    16.5399   -20.5174 H          1  LIG1   0.1200
     18 O1        -19.8655    15.7184   -19.7149 O.3        1  LIG1  -0.5400
     19 C11       -19.8201    17.8615   -20.8308 C.3        1  LIG1   0.0200
     20 N2        -18.9736    19.0309   -21.1032 N.3        1  LIG1  -0.5400
     21 C12       -18.0337    18.7567   -22.1983 C.3        1  LIG1   0.0200
     22 C13       -19.7910    20.2159   -21.3953 C.3        1  LIG1   0.0200
     23 H5        -15.4441    17.4275   -17.1573 H          1  LIG1   0.0800
     24 H6        -16.4899    18.8196   -17.5273 H          1  LIG1   0.0800
     25 H7        -15.9753    18.5137   -15.8510 H          1  LIG1   0.1100
     26 H8        -16.8962    16.5575   -14.5990 H          1  LIG1   0.0900
     27 H9        -18.0665    15.4697   -15.3832 H          1  LIG1   0.1200
     28 H10       -16.3222    14.7543   -16.9940 H          1  LIG1   0.1000
     29 H11       -15.1518    15.8422   -16.2095 H          1  LIG1   0.0700
     30 H12       -14.2808    15.1788   -13.8678 H          1  LIG1   0.1500
     31 H13       -14.0583    13.1241   -12.3797 H          1  LIG1   0.1600
     32 H14       -19.5313    17.8276   -18.1205 H          1  LIG1   0.1400
     33 H15       -18.0092    18.3791   -18.8602 H          1  LIG1   0.1400
     34 H16       -19.4357    15.0381   -19.1787 H          1  LIG1   0.3900
     35 H17       -20.1084    17.3944   -21.7725 H          1  LIG1   0.0900
     36 H18       -20.7141    18.1776   -20.2933 H          1  LIG1   0.0500
     37 H19       -17.4192    19.6387   -22.3793 H          1  LIG1   0.0300
     38 H20       -17.3936    17.9175   -21.9263 H          1  LIG1   0.0800
     39 H21       -18.5910    18.5105   -23.1023 H          1  LIG1   0.0700
     40 H22       -19.1396    21.0670   -21.5932 H          1  LIG1   0.0700
     41 H23       -20.4118    20.0223   -22.2702 H          1  LIG1   0.0800
     42 H24       -20.4285    20.4376   -20.5394 H          1  LIG1   0.0300
@<TRIPOS>BOND
     1    1    2 1
     2    1   23 1
     3    1   24 1
     4    1   25 1
     5    2    3 1
     6    2    4 1
     7    2   12 1
     8    4    5 1
     9    4   26 1
    10    4   27 1
    11    5    6 1
    12    5   28 1
    13    5   29 1
    14    6   11 1
    15    6    7 2
    16    7    8 1
    17    7   30 1
    18    8    9 2
    19    8   31 1
    20    9   10 1
    21    9   11 1
    22   12   13 1
    23   12   14 1
    24   12   15 1
    25   15   16 1
    26   15   32 1
    27   15   33 1
    28   16   17 1
    29   16   18 1
    30   16   19 1
    31   18   34 1
    32   19   20 1
    33   19   35 1
    34   19   36 1
    35   20   21 1
    36   20   22 1
    37   21   37 1
    38   21   38 1
    39   21   39 1
    40   22   40 1
    41   22   41 1
    42   22   42 1
