##########                 Name:     ZINC000488256763
##########          Protonation:                 none
##########               SMILES:   C=C(C[NH2+][C@H](CC1=CC=C(Cl)C=C1)C(N)=O)C1=CC=CC=C1
##########            Long Name:   NO_LONG_NAME
##########          FlexRecCode: 1
##########               Number:                10834
##########   Ligand Source File: /nfs/db/export/3D/DG/EDRO/DGEDRO.xat.db2.gz
##########                 Rank:                    1
##########               Setnum:                   20
##########             Matchnum:                    1
##########                Cloud:                    1
##########        Electrostatic:           -45.710480
##########                 Gist:             0.000000
##########        Van der Waals:           -32.210480
##########  Ligand Polar Desolv:            12.471340
########## Ligand Apolar Desolv:            -4.095475
##########      Internal Energy:             0.000000
##########      Receptor Energy:             0.000000
########## Receptor Desolvation:             0.000000
########## Receptor Hydrophobic:             0.000000
##########         Total Energy:           -69.545097
##########        Ligand Charge:             1.000000
##########            Arbitrary:    +999.9990
##########        Ligand Energy:             0.000000

@<TRIPOS>MOLECULE
 ZINC000488256763      none
   42    43     0     0     0



@<TRIPOS>ATOM
      1 C1        -19.1505    15.5562   -20.9427 C.2        1  LIG1  -0.0800
      2 C2        -19.5727    16.6222   -20.2772 C.2        1  LIG1  -0.1600
      3 C3        -18.6098    17.4091   -19.4259 C.3        1  LIG1   0.0300
      4 N1        -18.6042    16.8641   -18.0617 N.4        1  LIG1  -0.4900
      5 H1        -19.5315    16.9301   -17.6693 H          1  LIG1   0.4300
      6 H2        -18.3177    15.8970   -18.0872 H          1  LIG1   0.4300
      7 C4        -17.6656    17.6312   -17.2318 C.3        1  LIG1   0.0100
      8 H3        -17.7454    18.6903   -17.4773 H          1  LIG1   0.1700
      9 C5        -16.2379    17.1514   -17.5005 C.3        1  LIG1  -0.1000
     10 C6        -15.2608    18.2109   -17.0603 C.ar       1  LIG1  -0.1300
     11 C7        -14.8575    19.1907   -17.9480 C.ar       1  LIG1  -0.1300
     12 C8        -13.9615    20.1626   -17.5450 C.ar       1  LIG1  -0.1000
     13 C9        -13.4678    20.1548   -16.2525 C.ar       1  LIG1  -0.0200
     14 Cl1       -12.3427    21.3755   -15.7452 Cl         1  LIG1  -0.0400
     15 C10       -13.8717    19.1739   -15.3643 C.ar       1  LIG1  -0.1000
     16 C11       -14.7722    18.2058   -15.7671 C.ar       1  LIG1  -0.0900
     17 C12       -17.9989    17.4264   -15.7764 C.2        1  LIG1   0.5200
     18 N2        -18.5523    16.2672   -15.3685 N.am       1  LIG1  -0.8200
     19 O1        -17.7691    18.3048   -14.9723 O.2        1  LIG1  -0.5200
     20 C13       -20.9878    17.0390   -20.3702 C.ar       1  LIG1  -0.0700
     21 C14       -21.3154    18.3005   -20.8685 C.ar       1  LIG1  -0.1200
     22 C15       -22.6382    18.6834   -20.9526 C.ar       1  LIG1  -0.1100
     23 C16       -23.6388    17.8199   -20.5438 C.ar       1  LIG1  -0.1000
     24 C17       -23.3206    16.5680   -20.0485 C.ar       1  LIG1  -0.1100
     25 C18       -22.0021    16.1704   -19.9654 C.ar       1  LIG1  -0.1000
     26 H4        -19.8407    14.9924   -21.5529 H          1  LIG1   0.1300
     27 H5        -18.1156    15.2543   -20.8784 H          1  LIG1   0.1200
     28 H6        -17.6082    17.3379   -19.8497 H          1  LIG1   0.1300
     29 H7        -18.9193    18.4539   -19.3984 H          1  LIG1   0.1600
     30 H8        -16.0527    16.2325   -16.9441 H          1  LIG1   0.1300
     31 H9        -16.1127    16.9622   -18.5666 H          1  LIG1   0.1100
     32 H10       -15.2427    19.1966   -18.9571 H          1  LIG1   0.1300
     33 H11       -13.6462    20.9279   -18.2388 H          1  LIG1   0.1400
     34 H12       -13.4865    19.1671   -14.3554 H          1  LIG1   0.1500
     35 H13       -15.0879    17.4402   -15.0737 H          1  LIG1   0.1400
     36 H14       -18.7360    15.5648   -16.0117 H          1  LIG1   0.4100
     37 H15       -18.7668    16.1353   -14.4318 H          1  LIG1   0.4300
     38 H16       -20.5351    18.9758   -21.1872 H          1  LIG1   0.1100
     39 H17       -22.8931    19.6596   -21.3381 H          1  LIG1   0.1300
     40 H18       -24.6727    18.1246   -20.6114 H          1  LIG1   0.1300
     41 H19       -24.1064    15.8988   -19.7303 H          1  LIG1   0.1300
     42 H20       -21.7549    15.1927   -19.5787 H          1  LIG1   0.1300
@<TRIPOS>BOND
     1    1    2 2
     2    1   26 1
     3    1   27 1
     4    2    3 1
     5    2   20 1
     6    3    4 1
     7    3   28 1
     8    3   29 1
     9    4    5 1
    10    4    6 1
    11    4    7 1
    12    7    8 1
    13    7    9 1
    14    7   17 1
    15    9   10 1
    16    9   30 1
    17    9   31 1
    18   10   16 ar
    19   10   11 ar
    20   11   12 ar
    21   11   32 1
    22   12   13 ar
    23   12   33 1
    24   13   14 1
    25   13   15 ar
    26   15   16 ar
    27   15   34 1
    28   16   35 1
    29   17   18 am
    30   17   19 2
    31   18   36 1
    32   18   37 1
    33   20   25 ar
    34   20   21 ar
    35   21   22 ar
    36   21   38 1
    37   22   23 ar
    38   22   39 1
    39   23   24 ar
    40   23   40 1
    41   24   25 ar
    42   24   41 1
    43   25   42 1
##########                 Name:     ZINC000065939558
##########          Protonation:                 none
##########               SMILES:   CC1=CC(NC(=O)C(=O)N(CC[NH+](C)C)CC2=CC=CC(F)=C2)=NO1
##########            Long Name:   NO_LONG_NAME
##########          FlexRecCode: 1
##########               Number:                10028
##########   Ligand Source File: /nfs/db/export/3D/ED/ADRO/EDADRO.xbfy.db2.gz
##########                 Rank:                    1
##########               Setnum:                  190
##########             Matchnum:                    1
##########                Cloud:                    1
##########        Electrostatic:           -45.577438
##########                 Gist:             0.000000
##########        Van der Waals:           -30.999126
##########  Ligand Polar Desolv:            16.961281
########## Ligand Apolar Desolv:            -4.347146
##########      Internal Energy:             0.000000
##########      Receptor Energy:             0.000000
########## Receptor Desolvation:             0.000000
########## Receptor Hydrophobic:             0.000000
##########         Total Energy:           -63.962433
##########        Ligand Charge:             1.000000
##########            Arbitrary:    +999.9990
##########        Ligand Energy:             0.000000

@<TRIPOS>MOLECULE
 ZINC000065939558      none
   47    48     0     0     0



@<TRIPOS>ATOM
      1 C1        -16.1265    22.6240   -25.2166 C.3        1  LIG1  -0.0800
      2 C2        -16.7157    22.5230   -23.8331 C.2        1  LIG1  -0.0100
      3 C3        -16.6858    21.4438   -23.0187 C.2        1  LIG1  -0.2300
      4 C4        -17.3731    21.8752   -21.8529 C.2        1  LIG1   0.2300
      5 N1        -17.6182    21.1289   -20.7017 N.am       1  LIG1  -0.5900
      6 C5        -17.1851    19.8552   -20.6194 C.2        1  LIG1   0.5300
      7 O1        -16.5817    19.3583   -21.5479 O.2        1  LIG1  -0.5200
      8 C6        -17.4476    19.0553   -19.3855 C.2        1  LIG1   0.5100
      9 O2        -17.0165    19.4317   -18.3153 O.2        1  LIG1  -0.4700
     10 N2        -18.1632    17.9157   -19.4607 N.am       1  LIG1  -0.5800
     11 C7        -18.4207    17.1312   -18.2504 C.3        1  LIG1   0.0700
     12 C8        -17.0906    16.6926   -17.6345 C.3        1  LIG1  -0.0300
     13 N3        -17.3488    15.9060   -16.4209 N.4        1  LIG1  -0.3800
     14 H1        -17.8946    15.0911   -16.6581 H          1  LIG1   0.4300
     15 C9        -16.0718    15.4849   -15.8296 C.3        1  LIG1  -0.0500
     16 C10       -18.0893    16.7269   -15.4537 C.3        1  LIG1  -0.0500
     17 C11       -18.6834    17.4613   -20.7527 C.3        1  LIG1   0.1500
     18 C12       -20.1865    17.3762   -20.6871 C.ar       1  LIG1  -0.1000
     19 C13       -20.7951    16.2023   -20.2844 C.ar       1  LIG1  -0.1100
     20 C14       -22.1742    16.1228   -20.2238 C.ar       1  LIG1  -0.0900
     21 C15       -22.9455    17.2170   -20.5659 C.ar       1  LIG1  -0.1400
     22 C16       -22.3369    18.3937   -20.9692 C.ar       1  LIG1   0.1000
     23 F1        -23.0901    19.4641   -21.3041 F          1  LIG1  -0.1300
     24 C17       -20.9559    18.4738   -21.0245 C.ar       1  LIG1  -0.1400
     25 N4        -17.7292    23.1133   -22.0763 N.2        1  LIG1  -0.3700
     26 O3        -17.3667    23.4878   -23.1674 O.3        1  LIG1   0.1100
     27 H2        -15.6616    21.6749   -25.4835 H          1  LIG1   0.0900
     28 H3        -16.9159    22.8557   -25.9315 H          1  LIG1   0.0900
     29 H4        -15.3760    23.4142   -25.2350 H          1  LIG1   0.1000
     30 H5        -16.2424    20.4778   -23.2105 H          1  LIG1   0.1900
     31 H6        -18.1005    21.5261   -19.9598 H          1  LIG1   0.4400
     32 H7        -18.9703    17.7403   -17.5328 H          1  LIG1   0.1000
     33 H8        -19.0103    16.2509   -18.5067 H          1  LIG1   0.1400
     34 H9        -16.5411    16.0837   -18.3522 H          1  LIG1   0.1300
     35 H10       -16.5010    17.5729   -17.3783 H          1  LIG1   0.1300
     36 H11       -16.2634    14.9012   -14.9292 H          1  LIG1   0.1200
     37 H12       -15.5224    14.8756   -16.5473 H          1  LIG1   0.1300
     38 H13       -15.4821    16.3651   -15.5735 H          1  LIG1   0.1200
     39 H14       -18.2809    16.1433   -14.5533 H          1  LIG1   0.1200
     40 H15       -17.4997    17.6072   -15.1974 H          1  LIG1   0.1300
     41 H16       -19.0370    17.0394   -15.8926 H          1  LIG1   0.1200
     42 H17       -18.3929    18.1679   -21.5301 H          1  LIG1   0.1000
     43 H18       -18.2735    16.4781   -20.9838 H          1  LIG1   0.1100
     44 H19       -20.1930    15.3465   -20.0171 H          1  LIG1   0.1400
     45 H20       -22.6486    15.2050   -19.9093 H          1  LIG1   0.1400
     46 H21       -24.0227    17.1544   -20.5193 H          1  LIG1   0.1400
     47 H22       -20.4802    19.3910   -21.3384 H          1  LIG1   0.1300
@<TRIPOS>BOND
     1    1    2 1
     2    1   27 1
     3    1   28 1
     4    1   29 1
     5    2   26 1
     6    2    3 2
     7    3    4 1
     8    3   30 1
     9    4    5 1
    10    4   25 2
    11    5    6 am
    12    5   31 1
    13    6    7 2
    14    6    8 1
    15    8    9 2
    16    8   10 am
    17   10   11 1
    18   10   17 1
    19   11   12 1
    20   11   32 1
    21   11   33 1
    22   12   13 1
    23   12   34 1
    24   12   35 1
    25   13   14 1
    26   13   15 1
    27   13   16 1
    28   15   36 1
    29   15   37 1
    30   15   38 1
    31   16   39 1
    32   16   40 1
    33   16   41 1
    34   17   18 1
    35   17   42 1
    36   17   43 1
    37   18   24 ar
    38   18   19 ar
    39   19   20 ar
    40   19   44 1
    41   20   21 ar
    42   20   45 1
    43   21   22 ar
    44   21   46 1
    45   22   23 1
    46   22   24 ar
    47   24   47 1
    48   25   26 1
##########                 Name:     ZINC000128927868
##########          Protonation:                 none
##########               SMILES:   O=C(NC1=C2C=CSC2=CC=N1)[C@H](C1CC1)[NH+]1CCCC1
##########            Long Name:   NO_LONG_NAME
##########          FlexRecCode: 1
##########               Number:                 5013
##########   Ligand Source File: /nfs/db/export/3D/DG/ADRO/DGADRO.xaaf.db2.gz
##########                 Rank:                    1
##########               Setnum:                    3
##########             Matchnum:                    1
##########                Cloud:                    1
##########        Electrostatic:           -48.524963
##########                 Gist:             0.000000
##########        Van der Waals:           -27.034498
##########  Ligand Polar Desolv:            15.940824
########## Ligand Apolar Desolv:            -5.211040
##########      Internal Energy:             0.000000
##########      Receptor Energy:             0.000000
########## Receptor Desolvation:             0.000000
########## Receptor Hydrophobic:             0.000000
##########         Total Energy:           -64.829681
##########        Ligand Charge:             1.000000
##########            Arbitrary:    +999.9990
##########        Ligand Energy:             0.000000

@<TRIPOS>MOLECULE
 ZINC000128927868      none
   41    44     0     0     0



@<TRIPOS>ATOM
      1 O1        -15.8676    17.7896   -17.4739 O.2        1  LIG1  -0.4500
      2 C1        -16.5089    16.7848   -17.6973 C.2        1  LIG1   0.5000
      3 N1        -16.3903    15.7153   -16.8859 N.am       1  LIG1  -0.6400
      4 C2        -15.5317    15.7639   -15.7912 C.ar       1  LIG1   0.3900
      5 C3        -15.4065    14.6352   -14.9454 C.ar       1  LIG1  -0.1500
      6 C4        -16.0542    13.3379   -15.0095 C.2        1  LIG1  -0.1200
      7 C5        -15.7100    12.4981   -14.0523 C.2        1  LIG1  -0.1800
      8 S1        -14.5425    13.2175   -12.9593 S.3        1  LIG1   0.1500
      9 C6        -14.5324    14.7270   -13.8574 C.ar       1  LIG1  -0.1000
     10 C7        -13.8281    15.9226   -13.6579 C.ar       1  LIG1  -0.1400
     11 C8        -14.0112    16.9601   -14.5238 C.ar       1  LIG1   0.1300
     12 N2        -14.8372    16.8577   -15.5528 N.ar       1  LIG1  -0.4800
     13 C9        -17.4431    16.7344   -18.8788 C.3        1  LIG1   0.0500
     14 H1        -17.1372    15.9320   -19.5499 H          1  LIG1   0.1600
     15 C10       -17.3948    18.0695   -19.6245 C.3        1  LIG1  -0.2000
     16 C11       -16.3863    18.2041   -20.7674 C.3        1  LIG1  -0.1700
     17 C12       -17.8804    18.0862   -21.0753 C.3        1  LIG1  -0.1500
     18 N3        -18.8369    16.4806   -18.4013 N.4        1  LIG1  -0.3800
     19 H2        -18.8333    15.5497   -17.8903 H          1  LIG1   0.4400
     20 C13       -19.3614    17.5155   -17.4227 C.3        1  LIG1   0.0000
     21 C14       -20.6624    18.0064   -18.0333 C.3        1  LIG1  -0.1400
     22 C15       -21.1343    16.8414   -18.8798 C.3        1  LIG1  -0.1400
     23 C16       -19.8505    16.3557   -19.5176 C.3        1  LIG1  -0.0100
     24 H3        -16.9034    14.9117   -17.0645 H          1  LIG1   0.4200
     25 H4        -16.7639    13.0800   -15.7816 H          1  LIG1   0.1500
     26 H5        -16.0982    11.4951   -13.9539 H          1  LIG1   0.1800
     27 H6        -13.1468    16.0212   -12.8257 H          1  LIG1   0.1500
     28 H7        -13.4684    17.8810   -14.3696 H          1  LIG1   0.1700
     29 H8        -17.5899    18.9541   -19.0183 H          1  LIG1   0.1400
     30 H9        -15.9177    19.1774   -20.9130 H          1  LIG1   0.1200
     31 H10       -15.7575    17.3416   -20.9879 H          1  LIG1   0.1100
     32 H11       -18.2344    17.1462   -21.4985 H          1  LIG1   0.1000
     33 H12       -18.3947    18.9819   -21.4236 H          1  LIG1   0.1200
     34 H13       -19.5235    17.0416   -16.4470 H          1  LIG1   0.1400
     35 H14       -18.6278    18.3247   -17.3237 H          1  LIG1   0.1400
     36 H15       -21.3987    18.2474   -17.2499 H          1  LIG1   0.1000
     37 H16       -20.4929    18.9007   -18.6542 H          1  LIG1   0.1200
     38 H17       -21.5718    16.0646   -18.2587 H          1  LIG1   0.1100
     39 H18       -21.8388    17.1742   -19.6371 H          1  LIG1   0.1100
     40 H19       -19.5532    16.9921   -20.3315 H          1  LIG1   0.1200
     41 H20       -19.9253    15.3243   -19.8106 H          1  LIG1   0.1400
@<TRIPOS>BOND
     1    1    2 2
     2    2    3 am
     3    2   13 1
     4    3    4 1
     5    3   24 1
     6    4   12 ar
     7    4    5 ar
     8    5    9 ar
     9    5    6 1
    10    6    7 2
    11    6   25 1
    12    7    8 1
    13    7   26 1
    14    8    9 1
    15    9   10 ar
    16   10   11 ar
    17   10   27 1
    18   11   12 ar
    19   11   28 1
    20   13   14 1
    21   13   15 1
    22   13   18 1
    23   15   17 1
    24   15   16 1
    25   15   29 1
    26   16   17 1
    27   16   30 1
    28   16   31 1
    29   17   32 1
    30   17   33 1
    31   18   19 1
    32   18   23 1
    33   18   20 1
    34   20   21 1
    35   20   34 1
    36   20   35 1
    37   21   22 1
    38   21   36 1
    39   21   37 1
    40   22   23 1
    41   22   38 1
    42   22   39 1
    43   23   40 1
    44   23   41 1
##########                 Name:     ZINC000355145881
##########          Protonation:                 none
##########               SMILES:   CCCCN1N=CC(NC(=O)[C@@H](CCC)[NH2+]C(C)C)=C1C
##########            Long Name:   NO_LONG_NAME
##########          FlexRecCode: 1
##########               Number:                 5063
##########   Ligand Source File: /nfs/db/export/3D/CG/ADRO/CGADRO.xblw.db2.gz
##########                 Rank:                    1
##########               Setnum:                   63
##########             Matchnum:                    1
##########                Cloud:                    1
##########        Electrostatic:           -45.829826
##########                 Gist:             0.000000
##########        Van der Waals:           -27.790844
##########  Ligand Polar Desolv:            13.720444
########## Ligand Apolar Desolv:            -4.082574
##########      Internal Energy:             0.000000
##########      Receptor Energy:             0.000000
########## Receptor Desolvation:             0.000000
########## Receptor Hydrophobic:             0.000000
##########         Total Energy:           -63.982796
##########        Ligand Charge:             1.000000
##########            Arbitrary:    +999.9990
##########        Ligand Energy:             0.000000

@<TRIPOS>MOLECULE
 ZINC000355145881      none
   52    52     0     0     0



@<TRIPOS>ATOM
      1 C1        -12.6802    13.3345   -12.3734 C.3        1  LIG1  -0.1500
      2 C2        -11.8209    14.4253   -13.0158 C.3        1  LIG1  -0.1200
      3 C3        -12.6306    15.1404   -14.0994 C.3        1  LIG1  -0.1400
      4 C4        -13.8741    15.7738   -13.4720 C.3        1  LIG1   0.1300
      5 N1        -14.6495    16.4585   -14.5095 N.pl3      1  LIG1  -0.3500
      6 N2        -14.4995    17.7940   -14.9044 N.2        1  LIG1  -0.2700
      7 C5        -15.3650    18.0430   -15.8532 C.2        1  LIG1   0.0600
      8 C6        -16.0996    16.8737   -16.0985 C.2        1  LIG1  -0.0300
      9 N3        -17.1288    16.7249   -17.0471 N.am       1  LIG1  -0.6100
     10 C7        -17.4871    17.7679   -17.8220 C.2        1  LIG1   0.5000
     11 O1        -16.9227    18.8350   -17.7017 O.2        1  LIG1  -0.5200
     12 C8        -18.5890    17.6086   -18.8375 C.3        1  LIG1   0.0100
     13 H1        -19.0977    18.5629   -18.9743 H          1  LIG1   0.1700
     14 C9        -17.9921    17.1532   -20.1707 C.3        1  LIG1  -0.1400
     15 C10       -17.4008    18.3592   -20.9032 C.3        1  LIG1  -0.1400
     16 C11       -16.8039    17.9037   -22.2363 C.3        1  LIG1  -0.1500
     17 N4        -19.5507    16.6047   -18.3631 N.4        1  LIG1  -0.4900
     18 H2        -19.1895    15.6804   -18.5454 H          1  LIG1   0.4300
     19 H3        -19.6953    16.7198   -17.3712 H          1  LIG1   0.4300
     20 C12       -20.8279    16.7788   -19.0676 C.3        1  LIG1   0.0200
     21 C13       -21.6446    15.4887   -18.9696 C.3        1  LIG1  -0.1800
     22 C14       -21.6106    17.9277   -18.4282 C.3        1  LIG1  -0.1900
     23 C15       -15.6371    15.9091   -15.2627 C.2        1  LIG1   0.0800
     24 C16       -16.1359    14.4895   -15.1787 C.3        1  LIG1  -0.1000
     25 H4        -12.1033    12.8250   -11.6014 H          1  LIG1   0.0600
     26 H5        -13.5661    13.7858   -11.9266 H          1  LIG1   0.0600
     27 H6        -12.9832    12.6155   -13.1345 H          1  LIG1   0.0500
     28 H7        -11.5177    15.1443   -12.2548 H          1  LIG1   0.0700
     29 H8        -10.9350    13.9739   -13.4627 H          1  LIG1   0.0700
     30 H9        -12.0186    15.9174   -14.5570 H          1  LIG1   0.0700
     31 H10       -12.9339    14.4212   -14.8603 H          1  LIG1   0.0700
     32 H11       -14.4863    14.9966   -13.0143 H          1  LIG1   0.1000
     33 H12       -13.5709    16.4929   -12.7110 H          1  LIG1   0.1000
     34 H13       -15.4922    18.9878   -16.3608 H          1  LIG1   0.2000
     35 H14       -17.5802    15.8717   -17.1433 H          1  LIG1   0.4100
     36 H15       -17.2073    16.4197   -19.9857 H          1  LIG1   0.1100
     37 H16       -18.7731    16.7029   -20.7834 H          1  LIG1   0.1200
     38 H17       -18.1856    19.0926   -21.0883 H          1  LIG1   0.0800
     39 H18       -16.6199    18.8095   -20.2904 H          1  LIG1   0.0600
     40 H19       -16.3827    18.7629   -22.7583 H          1  LIG1   0.0600
     41 H20       -16.0192    17.1703   -22.0514 H          1  LIG1   0.0600
     42 H21       -17.5849    17.4536   -22.8492 H          1  LIG1   0.0700
     43 H22       -20.6365    17.0089   -20.1156 H          1  LIG1   0.1400
     44 H23       -22.5924    15.6181   -19.4923 H          1  LIG1   0.0800
     45 H24       -21.0872    14.6704   -19.4252 H          1  LIG1   0.1100
     46 H25       -21.8362    15.2588   -17.9214 H          1  LIG1   0.0800
     47 H26       -22.5583    18.0569   -18.9508 H          1  LIG1   0.1100
     48 H27       -21.8022    17.6977   -17.3801 H          1  LIG1   0.0800
     49 H28       -21.0287    18.8467   -18.4980 H          1  LIG1   0.0800
     50 H29       -16.9334    14.3410   -15.9069 H          1  LIG1   0.0900
     51 H30       -15.3165    13.8032   -15.3920 H          1  LIG1   0.0800
     52 H31       -16.5188    14.2977   -14.1764 H          1  LIG1   0.0800
@<TRIPOS>BOND
     1    1    2 1
     2    1   25 1
     3    1   26 1
     4    1   27 1
     5    2    3 1
     6    2   28 1
     7    2   29 1
     8    3    4 1
     9    3   30 1
    10    3   31 1
    11    4    5 1
    12    4   32 1
    13    4   33 1
    14    5   23 1
    15    5    6 1
    16    6    7 2
    17    7    8 1
    18    7   34 1
    19    8    9 1
    20    8   23 2
    21    9   10 am
    22    9   35 1
    23   10   11 2
    24   10   12 1
    25   12   13 1
    26   12   14 1
    27   12   17 1
    28   14   15 1
    29   14   36 1
    30   14   37 1
    31   15   16 1
    32   15   38 1
    33   15   39 1
    34   16   40 1
    35   16   41 1
    36   16   42 1
    37   17   18 1
    38   17   19 1
    39   17   20 1
    40   20   21 1
    41   20   22 1
    42   20   43 1
    43   21   44 1
    44   21   45 1
    45   21   46 1
    46   22   47 1
    47   22   48 1
    48   22   49 1
    49   23   24 1
    50   24   50 1
    51   24   51 1
    52   24   52 1
##########                 Name:     ZINC000374072306
##########          Protonation:                 none
##########               SMILES:   O[C@@H]1CCCC[C@H]1[C@@H]1CCC[N@H+]1CC1=NN=C(C2=CC=CC=C2)O1
##########            Long Name:   NO_LONG_NAME
##########          FlexRecCode: 1
##########               Number:                10224
##########   Ligand Source File: /nfs/db/export/3D/EG/ADMO/EGADMO.xbag.db2.gz
##########                 Rank:                    1
##########               Setnum:                   29
##########             Matchnum:                    1
##########                Cloud:                    1
##########        Electrostatic:           -40.671761
##########                 Gist:             0.000000
##########        Van der Waals:           -34.262615
##########  Ligand Polar Desolv:            11.866399
########## Ligand Apolar Desolv:            -2.702198
##########      Internal Energy:             0.000000
##########      Receptor Energy:             0.000000
########## Receptor Desolvation:             0.000000
########## Receptor Hydrophobic:             0.000000
##########         Total Energy:           -65.770172
##########        Ligand Charge:             1.000000
##########            Arbitrary:    +999.9990
##########        Ligand Energy:             0.000000

@<TRIPOS>MOLECULE
 ZINC000374072306      none
   50    53     0     0     0



@<TRIPOS>ATOM
      1 O1        -20.1527    16.4731   -16.5498 O.3        1  LIG1  -0.5700
      2 C1        -20.8621    16.8768   -17.7228 C.3        1  LIG1   0.1200
      3 H1        -21.0384    17.9520   -17.6887 H          1  LIG1   0.0700
      4 C2        -22.2025    16.1419   -17.7864 C.3        1  LIG1  -0.1600
      5 C3        -22.9620    16.5742   -19.0423 C.3        1  LIG1  -0.1200
      6 C4        -22.1335    16.2323   -20.2823 C.3        1  LIG1  -0.1200
      7 C5        -20.7930    16.9671   -20.2187 C.3        1  LIG1  -0.1300
      8 C6        -20.0336    16.5349   -18.9627 C.3        1  LIG1  -0.1000
      9 H2        -19.8573    15.4598   -18.9968 H          1  LIG1   0.1000
     10 C7        -18.6932    17.2698   -18.8991 C.3        1  LIG1   0.0300
     11 H3        -18.8418    18.2793   -18.5157 H          1  LIG1   0.1500
     12 C8        -18.0602    17.3299   -20.3051 C.3        1  LIG1  -0.1400
     13 C9        -16.5501    17.1202   -20.0178 C.3        1  LIG1  -0.1400
     14 C10       -16.5923    16.1162   -18.8391 C.3        1  LIG1  -0.0200
     15 N1        -17.7590    16.5345   -18.0268 N.4        1  LIG1  -0.3900
     16 H4        -18.2183    15.7201   -17.6478 H          1  LIG1   0.4200
     17 C11       -17.3121    17.4061   -16.9320 C.3        1  LIG1   0.1100
     18 C12       -16.3580    16.6488   -16.0447 C.2        1  LIG1   0.0700
     19 N2        -15.2286    17.0953   -15.5706 N.2        1  LIG1  -0.2200
     20 N3        -14.6733    16.1838   -14.8522 N.2        1  LIG1  -0.2700
     21 C13       -15.4358    15.1159   -14.8432 C.2        1  LIG1   0.2700
     22 C14       -15.1597    13.8472   -14.1360 C.ar       1  LIG1  -0.0600
     23 C15       -16.0630    12.7867   -14.2205 C.ar       1  LIG1  -0.0700
     24 C16       -15.7993    11.6055   -13.5581 C.ar       1  LIG1  -0.1200
     25 C17       -14.6425    11.4710   -12.8114 C.ar       1  LIG1  -0.0700
     26 C18       -13.7431    12.5185   -12.7231 C.ar       1  LIG1  -0.1200
     27 C19       -13.9918    13.7027   -13.3857 C.ar       1  LIG1  -0.0500
     28 O2        -16.5204    15.3928   -15.5941 O.3        1  LIG1  -0.2100
     29 H5        -19.9609    15.5261   -16.5125 H          1  LIG1   0.4000
     30 H6        -22.0261    15.0669   -17.8204 H          1  LIG1   0.0800
     31 H7        -22.7927    16.3856   -16.9030 H          1  LIG1   0.0800
     32 H8        -23.9170    16.0506   -19.0876 H          1  LIG1   0.0800
     33 H9        -23.1383    17.6493   -19.0083 H          1  LIG1   0.0700
     34 H10       -21.9572    15.1571   -20.3163 H          1  LIG1   0.0700
     35 H11       -22.6746    16.5402   -21.1770 H          1  LIG1   0.0800
     36 H12       -20.2028    16.7235   -21.1021 H          1  LIG1   0.0600
     37 H13       -20.9694    18.0422   -20.1847 H          1  LIG1   0.0900
     38 H14       -18.4470    16.5302   -20.9366 H          1  LIG1   0.1100
     39 H15       -18.2335    18.3031   -20.7645 H          1  LIG1   0.1200
     40 H16       -16.0447    16.6876   -20.8814 H          1  LIG1   0.1200
     41 H17       -16.0762    18.0549   -19.7179 H          1  LIG1   0.1000
     42 H18       -16.7312    15.1008   -19.2103 H          1  LIG1   0.1400
     43 H19       -15.6777    16.1838   -18.2500 H          1  LIG1   0.1400
     44 H20       -16.8080    18.2796   -17.3456 H          1  LIG1   0.1700
     45 H21       -18.1746    17.7269   -16.3479 H          1  LIG1   0.1600
     46 H22       -16.9666    12.8906   -14.8029 H          1  LIG1   0.1300
     47 H23       -16.4978    10.7842   -13.6225 H          1  LIG1   0.1400
     48 H24       -14.4409    10.5442   -12.2948 H          1  LIG1   0.1400
     49 H25       -12.8422    12.4073   -12.1380 H          1  LIG1   0.1400
     50 H26       -13.2889    14.5198   -13.3161 H          1  LIG1   0.1400
@<TRIPOS>BOND
     1    1    2 1
     2    1   29 1
     3    2    3 1
     4    2    8 1
     5    2    4 1
     6    4    5 1
     7    4   30 1
     8    4   31 1
     9    5    6 1
    10    5   32 1
    11    5   33 1
    12    6    7 1
    13    6   34 1
    14    6   35 1
    15    7    8 1
    16    7   36 1
    17    7   37 1
    18    8    9 1
    19    8   10 1
    20   10   11 1
    21   10   15 1
    22   10   12 1
    23   12   13 1
    24   12   38 1
    25   12   39 1
    26   13   14 1
    27   13   40 1
    28   13   41 1
    29   14   15 1
    30   14   42 1
    31   14   43 1
    32   15   16 1
    33   15   17 1
    34   17   18 1
    35   17   44 1
    36   17   45 1
    37   18   28 1
    38   18   19 2
    39   19   20 1
    40   20   21 2
    41   21   22 1
    42   21   28 1
    43   22   27 ar
    44   22   23 ar
    45   23   24 ar
    46   23   46 1
    47   24   25 ar
    48   24   47 1
    49   25   26 ar
    50   25   48 1
    51   26   27 ar
    52   26   49 1
    53   27   50 1
##########                 Name:     ZINC000114729400
##########          Protonation:                 none
##########               SMILES:   CNC(=O)C1=CC=CC(NC(=O)[C@H](C)[N@H+]2CCC[C@H](C(C)C)CC2)=C1
##########            Long Name:   NO_LONG_NAME
##########          FlexRecCode: 1
##########               Number:                13844
##########   Ligand Source File: /nfs/db/export/3D/EG/ADMO/EGADMO.xbpu.db2.gz
##########                 Rank:                    1
##########               Setnum:                   62
##########             Matchnum:                    1
##########                Cloud:                    1
##########        Electrostatic:           -43.012848
##########                 Gist:             0.000000
##########        Van der Waals:           -35.092216
##########  Ligand Polar Desolv:            18.536829
########## Ligand Apolar Desolv:            -4.374516
##########      Internal Energy:             0.000000
##########      Receptor Energy:             0.000000
########## Receptor Desolvation:             0.000000
########## Receptor Hydrophobic:             0.000000
##########         Total Energy:           -63.942749
##########        Ligand Charge:             1.000000
##########            Arbitrary:    +999.9990
##########        Ligand Energy:             0.000000

@<TRIPOS>MOLECULE
 ZINC000114729400      none
   57    58     0     0     0



@<TRIPOS>ATOM
      1 C1        -13.9050    10.5787   -11.8119 C.3        1  LIG1   0.0800
      2 N1        -13.9476    11.8497   -12.5391 N.am       1  LIG1  -0.7300
      3 C2        -15.0206    12.1584   -13.2942 C.2        1  LIG1   0.5600
      4 O1        -15.9527    11.3823   -13.3716 O.2        1  LIG1  -0.5300
      5 C3        -15.0636    13.4413   -14.0282 C.ar       1  LIG1  -0.1100
      6 C4        -14.3488    14.5429   -13.5553 C.ar       1  LIG1  -0.0900
      7 C5        -14.3902    15.7391   -14.2427 C.ar       1  LIG1  -0.1000
      8 C6        -15.1380    15.8511   -15.3997 C.ar       1  LIG1  -0.1100
      9 C7        -15.8532    14.7599   -15.8788 C.ar       1  LIG1   0.1200
     10 N2        -16.6084    14.8784   -17.0512 N.am       1  LIG1  -0.6500
     11 C8        -16.2236    15.7361   -18.0170 C.2        1  LIG1   0.5000
     12 O2        -15.2226    16.4053   -17.8701 O.2        1  LIG1  -0.5000
     13 C9        -17.0367    15.8638   -19.2793 C.3        1  LIG1   0.0100
     14 H1        -17.0768    14.8989   -19.7847 H          1  LIG1   0.1700
     15 C10       -16.3868    16.8965   -20.2023 C.3        1  LIG1  -0.1800
     16 N3        -18.3993    16.2970   -18.9423 N.4        1  LIG1  -0.3600
     17 H2        -18.8330    15.6194   -18.3334 H          1  LIG1   0.4300
     18 C11       -18.3564    17.5856   -18.2897 C.3        1  LIG1  -0.0100
     19 C12       -19.4216    17.6871   -17.1844 C.3        1  LIG1  -0.1400
     20 C13       -20.7688    17.0634   -17.5981 C.3        1  LIG1  -0.1400
     21 C14       -21.1702    17.3963   -19.0113 C.3        1  LIG1  -0.0900
     22 H3        -20.7493    18.3618   -19.2916 H          1  LIG1   0.0800
     23 C15       -22.6959    17.4560   -19.1087 C.3        1  LIG1  -0.0900
     24 C16       -23.0967    18.2558   -20.3500 C.3        1  LIG1  -0.1600
     25 C17       -23.2563    16.0363   -19.2139 C.3        1  LIG1  -0.1600
     26 C18       -20.6326    16.3015   -19.9645 C.3        1  LIG1  -0.1600
     27 C19       -19.1954    16.4446   -20.1732 C.3        1  LIG1   0.0000
     28 C20       -15.8139    13.5529   -15.1988 C.ar       1  LIG1  -0.0600
     29 H4        -12.9671    10.5065   -11.2612 H          1  LIG1   0.0600
     30 H5        -14.7408    10.5314   -11.1137 H          1  LIG1   0.0600
     31 H6        -13.9754     9.7527   -12.5195 H          1  LIG1   0.0800
     32 H7        -13.2038    12.4692   -12.4771 H          1  LIG1   0.4000
     33 H8        -13.7637    14.4596   -12.6514 H          1  LIG1   0.1300
     34 H9        -13.8368    16.5906   -13.8750 H          1  LIG1   0.1400
     35 H10       -15.1668    16.7898   -15.9331 H          1  LIG1   0.1400
     36 H11       -17.4088    14.3434   -17.1687 H          1  LIG1   0.4200
     37 H12       -16.9748    16.9889   -21.1154 H          1  LIG1   0.1000
     38 H13       -16.3466    17.8615   -19.6969 H          1  LIG1   0.0900
     39 H14       -15.3756    16.5750   -20.4522 H          1  LIG1   0.1100
     40 H15       -17.3699    17.7301   -17.8493 H          1  LIG1   0.1300
     41 H16       -18.5341    18.3665   -19.0293 H          1  LIG1   0.1300
     42 H17       -19.0552    17.1752   -16.2945 H          1  LIG1   0.1000
     43 H18       -19.5796    18.7383   -16.9432 H          1  LIG1   0.1000
     44 H19       -20.6975    15.9800   -17.5006 H          1  LIG1   0.0600
     45 H20       -21.5435    17.4227   -16.9206 H          1  LIG1   0.1000
     46 H21       -23.0980    17.9404   -18.2189 H          1  LIG1   0.0800
     47 H22       -24.1837    18.2983   -20.4192 H          1  LIG1   0.0600
     48 H23       -22.6975    19.2672   -20.2751 H          1  LIG1   0.0600
     49 H24       -22.6945    17.7714   -21.2397 H          1  LIG1   0.0600
     50 H25       -24.3432    16.0790   -19.2834 H          1  LIG1   0.0600
     51 H26       -22.8541    15.5520   -20.1038 H          1  LIG1   0.0600
     52 H27       -22.9708    15.4665   -18.3298 H          1  LIG1   0.0600
     53 H28       -20.8345    15.3211   -19.5332 H          1  LIG1   0.0900
     54 H29       -21.1431    16.3809   -20.9242 H          1  LIG1   0.1300
     55 H30       -19.0013    17.4304   -20.5956 H          1  LIG1   0.1300
     56 H31       -18.8711    15.6912   -20.8912 H          1  LIG1   0.1300
     57 H32       -16.3690    12.7039   -15.5696 H          1  LIG1   0.1500
@<TRIPOS>BOND
     1    1    2 1
     2    1   29 1
     3    1   30 1
     4    1   31 1
     5    2    3 am
     6    2   32 1
     7    3    4 2
     8    3    5 1
     9    5   28 ar
    10    5    6 ar
    11    6    7 ar
    12    6   33 1
    13    7    8 ar
    14    7   34 1
    15    8    9 ar
    16    8   35 1
    17    9   10 1
    18    9   28 ar
    19   10   11 am
    20   10   36 1
    21   11   12 2
    22   11   13 1
    23   13   14 1
    24   13   15 1
    25   13   16 1
    26   15   37 1
    27   15   38 1
    28   15   39 1
    29   16   17 1
    30   16   27 1
    31   16   18 1
    32   18   19 1
    33   18   40 1
    34   18   41 1
    35   19   20 1
    36   19   42 1
    37   19   43 1
    38   20   21 1
    39   20   44 1
    40   20   45 1
    41   21   22 1
    42   21   23 1
    43   21   26 1
    44   23   24 1
    45   23   25 1
    46   23   46 1
    47   24   47 1
    48   24   48 1
    49   24   49 1
    50   25   50 1
    51   25   51 1
    52   25   52 1
    53   26   27 1
    54   26   53 1
    55   26   54 1
    56   27   55 1
    57   27   56 1
    58   28   57 1
##########                 Name:     ZINC000298424869
##########          Protonation:                 none
##########               SMILES:   CC(C)(CO)[C@@H]([NH2+]CC[C@H](O)C1=CC=CC=C1)C1=CC=CS1
##########            Long Name:   NO_LONG_NAME
##########          FlexRecCode: 1
##########               Number:                11001
##########   Ligand Source File: /nfs/db/export/3D/DH/ADRO/DHADRO.xdl.db2.gz
##########                 Rank:                    1
##########               Setnum:                  332
##########             Matchnum:                    1
##########                Cloud:                    1
##########        Electrostatic:           -45.414730
##########                 Gist:             0.000000
##########        Van der Waals:           -27.158247
##########  Ligand Polar Desolv:            11.817390
########## Ligand Apolar Desolv:            -3.238171
##########      Internal Energy:             0.000000
##########      Receptor Energy:             0.000000
########## Receptor Desolvation:             0.000000
########## Receptor Hydrophobic:             0.000000
##########         Total Energy:           -63.993755
##########        Ligand Charge:             1.000000
##########            Arbitrary:    +999.9990
##########        Ligand Energy:             0.000000

@<TRIPOS>MOLECULE
 ZINC000298424869      none
   48    49     0     0     0



@<TRIPOS>ATOM
      1 C1        -20.6128    16.4965   -19.2299 C.3        1  LIG1  -0.1700
      2 C2        -19.3494    17.0102   -19.9234 C.3        1  LIG1  -0.0700
      3 C3        -18.6336    15.8443   -20.6082 C.3        1  LIG1  -0.1400
      4 C4        -19.7325    18.0587   -20.9697 C.3        1  LIG1   0.0700
      5 O1        -19.9633    19.3128   -20.3247 O.3        1  LIG1  -0.5700
      6 C5        -18.4189    17.6413   -18.8859 C.3        1  LIG1   0.1300
      7 H1        -18.9288    18.4720   -18.3980 H          1  LIG1   0.1600
      8 N1        -18.0510    16.6346   -17.8812 N.4        1  LIG1  -0.5100
      9 H2        -18.8567    16.0683   -17.6618 H          1  LIG1   0.4300
     10 H3        -17.3166    16.0473   -18.2469 H          1  LIG1   0.4200
     11 C6        -17.5792    17.3076   -16.6636 C.3        1  LIG1  -0.0100
     12 C7        -17.1961    16.2590   -15.6173 C.3        1  LIG1  -0.1800
     13 C8        -16.0826    15.3683   -16.1718 C.3        1  LIG1   0.1600
     14 H4        -15.2120    15.9799   -16.4088 H          1  LIG1   0.1200
     15 O2        -16.5416    14.7136   -17.3563 O.3        1  LIG1  -0.5500
     16 C9        -15.7053    14.3355   -15.1412 C.ar       1  LIG1  -0.1300
     17 C10       -14.7153    14.6112   -14.2167 C.ar       1  LIG1  -0.1100
     18 C11       -14.3693    13.6638   -13.2714 C.ar       1  LIG1  -0.1100
     19 C12       -15.0135    12.4409   -13.2503 C.ar       1  LIG1  -0.1100
     20 C13       -16.0042    12.1656   -14.1742 C.ar       1  LIG1  -0.1100
     21 C14       -16.3532    13.1146   -15.1168 C.ar       1  LIG1  -0.1100
     22 C15       -17.1745    18.1473   -19.5689 C.2        1  LIG1  -0.2700
     23 C16       -16.0601    17.4395   -19.7597 C.2        1  LIG1  -0.0600
     24 C17       -15.0444    18.1156   -20.4132 C.2        1  LIG1  -0.1400
     25 C18       -15.3338    19.3726   -20.7531 C.2        1  LIG1  -0.1600
     26 S1        -16.9721    19.7593   -20.2430 S.3        1  LIG1   0.1000
     27 H5        -21.1227    17.3271   -18.7421 H          1  LIG1   0.0900
     28 H6        -21.2758    16.0469   -19.9690 H          1  LIG1   0.0500
     29 H7        -20.3398    15.7495   -18.4845 H          1  LIG1   0.0900
     30 H8        -17.7335    16.2103   -21.1023 H          1  LIG1   0.0800
     31 H9        -18.3606    15.0972   -19.8629 H          1  LIG1   0.0800
     32 H10       -19.2965    15.3946   -21.3474 H          1  LIG1   0.0700
     33 H11       -18.9226    18.1649   -21.6912 H          1  LIG1   0.0800
     34 H12       -20.6395    17.7430   -21.4854 H          1  LIG1   0.0400
     35 H13       -19.1968    19.6553   -19.8448 H          1  LIG1   0.4000
     36 H14       -16.7088    17.9193   -16.9006 H          1  LIG1   0.1400
     37 H15       -18.3725    17.9420   -16.2686 H          1  LIG1   0.1400
     38 H16       -16.8460    16.7584   -14.7138 H          1  LIG1   0.1000
     39 H17       -18.0666    15.6474   -15.3802 H          1  LIG1   0.0900
     40 H18       -17.3160    14.1507   -17.2194 H          1  LIG1   0.3800
     41 H19       -14.2119    15.5665   -14.2332 H          1  LIG1   0.1200
     42 H20       -13.5952    13.8789   -12.5496 H          1  LIG1   0.1300
     43 H21       -14.7427    11.7005   -12.5122 H          1  LIG1   0.1300
     44 H22       -16.5073    11.2101   -14.1579 H          1  LIG1   0.1300
     45 H23       -17.1273    12.8996   -15.8387 H          1  LIG1   0.1200
     46 H24       -15.9580    16.4165   -19.4292 H          1  LIG1   0.1500
     47 H25       -14.0896    17.6601   -20.6311 H          1  LIG1   0.1600
     48 H26       -14.6656    20.0485   -21.2660 H          1  LIG1   0.1800
@<TRIPOS>BOND
     1    1    2 1
     2    1   27 1
     3    1   28 1
     4    1   29 1
     5    2    3 1
     6    2    4 1
     7    2    6 1
     8    3   30 1
     9    3   31 1
    10    3   32 1
    11    4    5 1
    12    4   33 1
    13    4   34 1
    14    5   35 1
    15    6    7 1
    16    6    8 1
    17    6   22 1
    18    8    9 1
    19    8   10 1
    20    8   11 1
    21   11   12 1
    22   11   36 1
    23   11   37 1
    24   12   13 1
    25   12   38 1
    26   12   39 1
    27   13   14 1
    28   13   15 1
    29   13   16 1
    30   15   40 1
    31   16   21 ar
    32   16   17 ar
    33   17   18 ar
    34   17   41 1
    35   18   19 ar
    36   18   42 1
    37   19   20 ar
    38   19   43 1
    39   20   21 ar
    40   20   44 1
    41   21   45 1
    42   22   26 1
    43   22   23 2
    44   23   24 1
    45   23   46 1
    46   24   25 2
    47   24   47 1
    48   25   26 1
    49   25   48 1
##########                 Name:     ZINC000488640994
##########          Protonation:                 none
##########               SMILES:   CC[N@@H+](C[C@H]1CCCO1)[C@H](C)C(=O)NC1=CC=CC(Br)=C1
##########            Long Name:   NO_LONG_NAME
##########          FlexRecCode: 1
##########               Number:                11096
##########   Ligand Source File: /nfs/db/export/3D/FG/ADMO/FGADMO.xbdo.db2.gz
##########                 Rank:                    1
##########               Setnum:                   36
##########             Matchnum:                    1
##########                Cloud:                    1
##########        Electrostatic:           -40.840603
##########                 Gist:             0.000000
##########        Van der Waals:           -31.617210
##########  Ligand Polar Desolv:            12.766544
########## Ligand Apolar Desolv:            -4.655589
##########      Internal Energy:             0.000000
##########      Receptor Energy:             0.000000
########## Receptor Desolvation:             0.000000
########## Receptor Hydrophobic:             0.000000
##########         Total Energy:           -64.346855
##########        Ligand Charge:             1.000000
##########            Arbitrary:    +999.9990
##########        Ligand Energy:             0.000000

@<TRIPOS>MOLECULE
 ZINC000488640994      none
   45    46     0     0     0



@<TRIPOS>ATOM
      1 C1        -17.0102    18.7962   -17.2906 C.3        1  LIG1  -0.1900
      2 C2        -17.7933    17.6152   -16.7135 C.3        1  LIG1  -0.0200
      3 N1        -17.9711    16.5914   -17.7516 N.4        1  LIG1  -0.3700
      4 H1        -18.4875    15.8125   -17.3710 H          1  LIG1   0.4400
      5 C3        -18.7124    17.1645   -18.8829 C.3        1  LIG1  -0.0200
      6 C4        -20.0826    17.6472   -18.4027 C.3        1  LIG1   0.0500
      7 H2        -19.9918    18.6183   -17.9162 H          1  LIG1   0.1000
      8 C5        -21.0706    17.7323   -19.5934 C.3        1  LIG1  -0.1500
      9 C6        -22.4308    17.5843   -18.8589 C.3        1  LIG1  -0.1600
     10 C7        -22.0777    16.6199   -17.7062 C.3        1  LIG1   0.0500
     11 O1        -20.6605    16.6900   -17.5009 O.3        1  LIG1  -0.3900
     12 C8        -16.6555    16.1278   -18.2128 C.3        1  LIG1   0.0000
     13 H3        -16.0976    16.9692   -18.6240 H          1  LIG1   0.1600
     14 C9        -16.8406    15.0615   -19.2941 C.3        1  LIG1  -0.1800
     15 C10       -15.8950    15.5398   -17.0523 C.2        1  LIG1   0.5100
     16 O2        -14.8312    16.0182   -16.7196 O.2        1  LIG1  -0.5000
     17 N2        -16.3967    14.4823   -16.3843 N.am       1  LIG1  -0.6400
     18 C11       -15.6904    13.9363   -15.3067 C.ar       1  LIG1   0.1300
     19 C12       -15.8005    12.5827   -15.0171 C.ar       1  LIG1  -0.1200
     20 C13       -15.1022    12.0461   -13.9528 C.ar       1  LIG1  -0.0900
     21 C14       -14.2942    12.8551   -13.1759 C.ar       1  LIG1  -0.0900
     22 C15       -14.1821    14.2046   -13.4615 C.ar       1  LIG1  -0.0700
     23 Br1       -13.0749    15.3070   -12.3961 Br         1  LIG1  -0.0300
     24 C16       -14.8736    14.7459   -14.5283 C.ar       1  LIG1  -0.0900
     25 H4        -16.8782    19.5559   -16.5202 H          1  LIG1   0.1100
     26 H5        -16.0340    18.4523   -17.6328 H          1  LIG1   0.0800
     27 H6        -17.5604    19.2216   -18.1300 H          1  LIG1   0.0800
     28 H7        -17.2431    17.1900   -15.8741 H          1  LIG1   0.1400
     29 H8        -18.7694    17.9590   -16.3713 H          1  LIG1   0.1400
     30 H9        -18.1546    18.0058   -19.2940 H          1  LIG1   0.1500
     31 H10       -18.8444    16.4047   -19.6533 H          1  LIG1   0.1400
     32 H11       -20.9981    18.6969   -20.0956 H          1  LIG1   0.1000
     33 H12       -20.9117    16.9132   -20.2948 H          1  LIG1   0.0900
     34 H13       -22.7687    18.5453   -18.4709 H          1  LIG1   0.0900
     35 H14       -23.1810    17.1449   -19.5163 H          1  LIG1   0.1000
     36 H15       -22.5970    16.9240   -16.7974 H          1  LIG1   0.0800
     37 H16       -22.3637    15.6028   -17.9743 H          1  LIG1   0.0800
     38 H17       -15.8644    14.7178   -19.6362 H          1  LIG1   0.0900
     39 H18       -17.3986    14.2202   -18.8830 H          1  LIG1   0.1000
     40 H19       -17.3908    15.4867   -20.1335 H          1  LIG1   0.1100
     41 H20       -17.2474    14.0997   -16.6503 H          1  LIG1   0.4200
     42 H21       -16.4318    11.9499   -15.6234 H          1  LIG1   0.1400
     43 H22       -15.1880    10.9935   -13.7272 H          1  LIG1   0.1500
     44 H23       -13.7495    12.4332   -12.3441 H          1  LIG1   0.1400
     45 H24       -14.7860    15.7990   -14.7511 H          1  LIG1   0.1400
@<TRIPOS>BOND
     1    1    2 1
     2    1   25 1
     3    1   26 1
     4    1   27 1
     5    2    3 1
     6    2   28 1
     7    2   29 1
     8    3    4 1
     9    3    5 1
    10    3   12 1
    11    5    6 1
    12    5   30 1
    13    5   31 1
    14    6    7 1
    15    6   11 1
    16    6    8 1
    17    8    9 1
    18    8   32 1
    19    8   33 1
    20    9   10 1
    21    9   34 1
    22    9   35 1
    23   10   11 1
    24   10   36 1
    25   10   37 1
    26   12   13 1
    27   12   14 1
    28   12   15 1
    29   14   38 1
    30   14   39 1
    31   14   40 1
    32   15   16 2
    33   15   17 am
    34   17   18 1
    35   17   41 1
    36   18   24 ar
    37   18   19 ar
    38   19   20 ar
    39   19   42 1
    40   20   21 ar
    41   20   43 1
    42   21   22 ar
    43   21   44 1
    44   22   23 1
    45   22   24 ar
    46   24   45 1
##########                 Name:     ZINC000621433143
##########          Protonation:                 none
##########               SMILES:   CC(C)[N@H+]1C[C@H](C)[C@H](NC(=O)N2CC3=CC=CC=C3[C@@H]2C)C1
##########            Long Name:   NO_LONG_NAME
##########          FlexRecCode: 1
##########               Number:                 8373
##########   Ligand Source File: /nfs/db/export/3D/DG/ADMO/DGADMO.xajw.db2.gz
##########                 Rank:                    1
##########               Setnum:                    5
##########             Matchnum:                    1
##########                Cloud:                    1
##########        Electrostatic:           -46.125290
##########                 Gist:             0.000000
##########        Van der Waals:           -27.942253
##########  Ligand Polar Desolv:            15.413032
########## Ligand Apolar Desolv:            -5.979602
##########      Internal Energy:             0.000000
##########      Receptor Energy:             0.000000
########## Receptor Desolvation:             0.000000
########## Receptor Hydrophobic:             0.000000
##########         Total Energy:           -64.634109
##########        Ligand Charge:             1.000000
##########            Arbitrary:    +999.9990
##########        Ligand Energy:             0.000000

@<TRIPOS>MOLECULE
 ZINC000621433143      none
   50    52     0     0     0



@<TRIPOS>ATOM
      1 C1        -20.6231    15.9704   -20.0802 C.3        1  LIG1  -0.1800
      2 C2        -20.3832    16.8535   -18.8539 C.3        1  LIG1   0.0300
      3 C3        -21.5242    16.6578   -17.8535 C.3        1  LIG1  -0.1800
      4 N1        -19.1099    16.4804   -18.2235 N.4        1  LIG1  -0.3900
      5 H1        -19.1339    15.5138   -17.9349 H          1  LIG1   0.4200
      6 C4        -17.9904    16.7043   -19.1637 C.3        1  LIG1  -0.0100
      7 C5        -16.7878    17.1820   -18.3289 C.3        1  LIG1  -0.1100
      8 H2        -16.4672    18.1702   -18.6584 H          1  LIG1   0.1300
      9 C6        -15.6330    16.1848   -18.4423 C.3        1  LIG1  -0.1500
     10 C7        -17.3055    17.2434   -16.8735 C.3        1  LIG1   0.1500
     11 H3        -16.9113    18.1206   -16.3605 H          1  LIG1   0.1400
     12 N2        -16.9565    16.0200   -16.1471 N.am       1  LIG1  -0.7500
     13 C8        -15.8205    15.9666   -15.4237 C.2        1  LIG1   0.7300
     14 O1        -15.0855    16.9338   -15.3739 O.2        1  LIG1  -0.5600
     15 N3        -15.4995    14.8411   -14.7553 N.am       1  LIG1  -0.6200
     16 C9        -14.3103    14.6279   -13.9242 C.3        1  LIG1   0.1500
     17 C10       -14.3762    13.2229   -13.3813 C.ar       1  LIG1  -0.1200
     18 C11       -13.5148    12.5238   -12.5538 C.ar       1  LIG1  -0.0900
     19 C12       -13.8041    11.2213   -12.1939 C.ar       1  LIG1  -0.1100
     20 C13       -14.9554    10.6157   -12.6608 C.ar       1  LIG1  -0.1100
     21 C14       -15.8158    11.3131   -13.4871 C.ar       1  LIG1  -0.0900
     22 C15       -15.5266    12.6175   -13.8479 C.ar       1  LIG1  -0.1000
     23 C16       -16.2756    13.5977   -14.7150 C.3        1  LIG1   0.2000
     24 H4        -17.2611    13.7885   -14.2904 H          1  LIG1   0.0900
     25 C17       -16.4211    13.0329   -16.1295 C.3        1  LIG1  -0.1600
     26 C18       -18.8406    17.3571   -17.0551 C.3        1  LIG1  -0.0200
     27 H5        -19.8102    16.1098   -20.7928 H          1  LIG1   0.1100
     28 H6        -20.6620    14.9253   -19.7732 H          1  LIG1   0.0800
     29 H7        -21.5679    16.2472   -20.5479 H          1  LIG1   0.0800
     30 H8        -20.3443    17.8987   -19.1608 H          1  LIG1   0.1400
     31 H9        -21.3533    17.2869   -16.9799 H          1  LIG1   0.0800
     32 H10       -22.4690    16.9347   -18.3212 H          1  LIG1   0.0800
     33 H11       -21.5632    15.6126   -17.5466 H          1  LIG1   0.1100
     34 H12       -17.7420    15.7735   -19.6738 H          1  LIG1   0.1300
     35 H13       -18.2640    17.4681   -19.8917 H          1  LIG1   0.1400
     36 H14       -14.7900    16.5358   -17.8469 H          1  LIG1   0.0800
     37 H15       -15.9565    15.2108   -18.0751 H          1  LIG1   0.0800
     38 H16       -15.3295    16.0975   -19.4856 H          1  LIG1   0.0600
     39 H17       -17.5428    15.2482   -16.1869 H          1  LIG1   0.4000
     40 H18       -13.4109    14.7489   -14.5283 H          1  LIG1   0.0800
     41 H19       -14.3021    15.3422   -13.1008 H          1  LIG1   0.0800
     42 H20       -12.6150    12.9968   -12.1891 H          1  LIG1   0.1300
     43 H21       -13.1308    10.6769   -11.5483 H          1  LIG1   0.1300
     44 H22       -15.1821     9.5976   -12.3803 H          1  LIG1   0.1300
     45 H23       -16.7151    10.8395   -13.8521 H          1  LIG1   0.1300
     46 H24       -16.9984    12.1092   -16.0943 H          1  LIG1   0.0700
     47 H25       -16.9351    13.7590   -16.7595 H          1  LIG1   0.0800
     48 H26       -15.4333    12.8285   -16.5424 H          1  LIG1   0.0600
     49 H27       -19.1269    18.3860   -17.2733 H          1  LIG1   0.1500
     50 H28       -19.3609    16.9916   -16.1698 H          1  LIG1   0.1400
@<TRIPOS>BOND
     1    1    2 1
     2    1   27 1
     3    1   28 1
     4    1   29 1
     5    2    3 1
     6    2    4 1
     7    2   30 1
     8    3   31 1
     9    3   32 1
    10    3   33 1
    11    4    5 1
    12    4   26 1
    13    4    6 1
    14    6    7 1
    15    6   34 1
    16    6   35 1
    17    7    8 1
    18    7    9 1
    19    7   10 1
    20    9   36 1
    21    9   37 1
    22    9   38 1
    23   10   11 1
    24   10   12 1
    25   10   26 1
    26   12   13 am
    27   12   39 1
    28   13   14 2
    29   13   15 am
    30   15   23 1
    31   15   16 1
    32   16   17 1
    33   16   40 1
    34   16   41 1
    35   17   22 ar
    36   17   18 ar
    37   18   19 ar
    38   18   42 1
    39   19   20 ar
    40   19   43 1
    41   20   21 ar
    42   20   44 1
    43   21   22 ar
    44   21   45 1
    45   22   23 1
    46   23   24 1
    47   23   25 1
    48   25   46 1
    49   25   47 1
    50   25   48 1
    51   26   49 1
    52   26   50 1
##########                 Name:     ZINC000279624908
##########          Protonation:                 none
##########               SMILES:   CC(=O)N1CCC[C@H](C[NH2+][C@@H](C)CCC2=CC=CC=C2[N+](=O)[O-])C1
##########            Long Name:   NO_LONG_NAME
##########          FlexRecCode: 1
##########               Number:                12243
##########   Ligand Source File: /nfs/db/export/3D/EF/BDRO/EFBDRO.xat.db2.gz
##########                 Rank:                    1
##########               Setnum:                   33
##########             Matchnum:                    1
##########                Cloud:                    1
##########        Electrostatic:           -46.795151
##########                 Gist:             0.000000
##########        Van der Waals:           -31.994558
##########  Ligand Polar Desolv:            17.270140
########## Ligand Apolar Desolv:            -5.845650
##########      Internal Energy:             0.000000
##########      Receptor Energy:             0.000000
########## Receptor Desolvation:             0.000000
########## Receptor Hydrophobic:             0.000000
##########         Total Energy:           -67.365219
##########        Ligand Charge:             1.000000
##########            Arbitrary:    +999.9990
##########        Ligand Energy:             0.000000

@<TRIPOS>MOLECULE
 ZINC000279624908      none
   52    53     0     0     0



@<TRIPOS>ATOM
      1 C1        -17.2157    21.0809   -22.1203 C.3        1  LIG1  -0.1800
      2 C2        -16.7382    19.8036   -21.4770 C.2        1  LIG1   0.5200
      3 O1        -15.5776    19.7339   -21.0644 O.2        1  LIG1  -0.5400
      4 N1        -17.6622    18.7625   -21.3933 N.am       1  LIG1  -0.6200
      5 C3        -19.0919    19.0622   -21.3040 C.3        1  LIG1   0.1000
      6 C4        -19.7110    18.4040   -20.0749 C.3        1  LIG1  -0.1400
      7 C5        -19.4094    16.9052   -20.0375 C.3        1  LIG1  -0.1100
      8 C6        -17.9098    16.6027   -20.1917 C.3        1  LIG1  -0.1300
      9 H1        -17.7995    15.5020   -20.3737 H          1  LIG1   0.1000
     10 C7        -17.1278    16.9540   -18.9226 C.3        1  LIG1  -0.0100
     11 N2        -17.2870    15.8774   -17.9358 N.4        1  LIG1  -0.5100
     12 H2        -18.2644    15.7702   -17.7098 H          1  LIG1   0.4300
     13 H3        -16.9340    15.0139   -18.3202 H          1  LIG1   0.4300
     14 C8        -16.5370    16.2143   -16.7185 C.3        1  LIG1   0.0300
     15 H4        -15.5855    16.6701   -16.9923 H          1  LIG1   0.1400
     16 C9        -17.3498    17.1983   -15.8746 C.3        1  LIG1  -0.1800
     17 C10       -16.2787    14.9414   -15.9099 C.3        1  LIG1  -0.1400
     18 C11       -15.1152    15.1776   -14.9447 C.3        1  LIG1  -0.1100
     19 C12       -14.8608    13.9238   -14.1482 C.ar       1  LIG1  -0.0300
     20 C13       -15.6344    12.7990   -14.3642 C.ar       1  LIG1  -0.1100
     21 C14       -15.4009    11.6488   -13.6335 C.ar       1  LIG1  -0.0600
     22 C15       -14.3937    11.6236   -12.6874 C.ar       1  LIG1  -0.1100
     23 C16       -13.6193    12.7484   -12.4721 C.ar       1  LIG1  -0.0500
     24 C17       -13.8499    13.8970   -13.2056 C.ar       1  LIG1  -0.0500
     25 N3        -13.0207    15.1013   -12.9750 N.pl3      1  LIG1   0.0400
     26 O2        -13.2291    16.1159   -13.6158 O.2        1  LIG1  -0.1300
     27 O3        -12.1302    15.0777   -12.1444 O.2        1  LIG1  -0.2100
     28 C18       -17.3346    17.3307   -21.4163 C.3        1  LIG1   0.1000
     29 H5        -18.2566    20.9680   -22.4238 H          1  LIG1   0.1000
     30 H6        -17.1324    21.9004   -21.4065 H          1  LIG1   0.0900
     31 H7        -16.6036    21.2979   -22.9956 H          1  LIG1   0.0900
     32 H8        -19.2336    20.1518   -21.2467 H          1  LIG1   0.0800
     33 H9        -19.5988    18.6969   -22.2097 H          1  LIG1   0.1000
     34 H10       -19.3113    18.8763   -19.1666 H          1  LIG1   0.0900
     35 H11       -20.7997    18.5538   -20.0891 H          1  LIG1   0.0700
     36 H12       -19.7629    16.4863   -19.0814 H          1  LIG1   0.0800
     37 H13       -19.9615    16.4024   -20.8481 H          1  LIG1   0.0800
     38 H14       -16.0719    17.0697   -19.1668 H          1  LIG1   0.1300
     39 H15       -17.5093    17.8868   -18.5073 H          1  LIG1   0.1400
     40 H16       -16.7933    17.4483   -14.9713 H          1  LIG1   0.1100
     41 H17       -17.5337    18.1053   -16.4507 H          1  LIG1   0.0800
     42 H18       -18.3013    16.7426   -15.6007 H          1  LIG1   0.0800
     43 H19       -17.1735    14.6826   -15.3438 H          1  LIG1   0.1100
     44 H20       -16.0287    14.1249   -16.5874 H          1  LIG1   0.0900
     45 H21       -14.2204    15.4363   -15.5107 H          1  LIG1   0.1000
     46 H22       -15.3652    15.9940   -14.2672 H          1  LIG1   0.1000
     47 H23       -16.4214    12.8187   -15.1034 H          1  LIG1   0.1500
     48 H24       -16.0059    10.7700   -13.8017 H          1  LIG1   0.1500
     49 H25       -14.2118    10.7252   -12.1161 H          1  LIG1   0.1500
     50 H26       -12.8324    12.7288   -11.7325 H          1  LIG1   0.1600
     51 H27       -17.7414    16.8753   -22.3304 H          1  LIG1   0.0900
     52 H28       -16.2421    17.2111   -21.4268 H          1  LIG1   0.0800
@<TRIPOS>BOND
     1    1    2 1
     2    1   29 1
     3    1   30 1
     4    1   31 1
     5    2    3 2
     6    2    4 am
     7    4   28 1
     8    4    5 1
     9    5    6 1
    10    5   32 1
    11    5   33 1
    12    6    7 1
    13    6   34 1
    14    6   35 1
    15    7    8 1
    16    7   36 1
    17    7   37 1
    18    8    9 1
    19    8   10 1
    20    8   28 1
    21   10   11 1
    22   10   38 1
    23   10   39 1
    24   11   12 1
    25   11   13 1
    26   11   14 1
    27   14   15 1
    28   14   16 1
    29   14   17 1
    30   16   40 1
    31   16   41 1
    32   16   42 1
    33   17   18 1
    34   17   43 1
    35   17   44 1
    36   18   19 1
    37   18   45 1
    38   18   46 1
    39   19   24 ar
    40   19   20 ar
    41   20   21 ar
    42   20   47 1
    43   21   22 ar
    44   21   48 1
    45   22   23 ar
    46   22   49 1
    47   23   24 ar
    48   23   50 1
    49   24   25 1
    50   25   26 2
    51   25   27 2
    52   28   51 1
    53   28   52 1
##########                 Name:     ZINC000467716766
##########          Protonation:                 none
##########               SMILES:   C[C@H]1C[N@H+](C2CC2)C[C@H]1NC(=O)C1=CC2=CC(Br)=CC=C2O1
##########            Long Name:   NO_LONG_NAME
##########          FlexRecCode: 1
##########               Number:                 9567
##########   Ligand Source File: /nfs/db/export/3D/FG/ADMO/FGADMO.xbgt.db2.gz
##########                 Rank:                    1
##########               Setnum:                    6
##########             Matchnum:                    1
##########                Cloud:                    1
##########        Electrostatic:           -41.191040
##########                 Gist:             0.000000
##########        Van der Waals:           -30.776955
##########  Ligand Polar Desolv:            13.283240
########## Ligand Apolar Desolv:            -5.781177
##########      Internal Energy:             0.000000
##########      Receptor Energy:             0.000000
########## Receptor Desolvation:             0.000000
########## Receptor Hydrophobic:             0.000000
##########         Total Energy:           -64.465927
##########        Ligand Charge:             1.000000
##########            Arbitrary:    +999.9990
##########        Ligand Energy:             0.000000

@<TRIPOS>MOLECULE
 ZINC000467716766      none
   42    45     0     0     0



@<TRIPOS>ATOM
      1 C1        -16.8950    15.9060   -19.4154 C.3        1  LIG1  -0.1700
      2 C2        -17.6530    17.2233   -19.2377 C.3        1  LIG1  -0.1200
      3 H1        -17.1001    18.0423   -19.6976 H          1  LIG1   0.1300
      4 C3        -19.0647    17.1169   -19.8535 C.3        1  LIG1   0.0000
      5 N1        -19.9432    16.7464   -18.7142 N.4        1  LIG1  -0.3700
      6 H2        -19.8654    15.7604   -18.5146 H          1  LIG1   0.4200
      7 C4        -21.3383    17.1035   -19.0038 C.3        1  LIG1  -0.0800
      8 C5        -22.2171    16.0399   -19.6650 C.3        1  LIG1  -0.1500
      9 C6        -22.4300    16.4014   -18.1937 C.3        1  LIG1  -0.1500
     10 C7        -19.4240    17.5492   -17.5770 C.3        1  LIG1  -0.0100
     11 C8        -17.8870    17.5090   -17.7400 C.3        1  LIG1   0.1300
     12 H3        -17.4517    18.4692   -17.4631 H          1  LIG1   0.1400
     13 N2        -17.3162    16.4373   -16.9203 N.am       1  LIG1  -0.7300
     14 C9        -16.3886    16.7249   -15.9859 C.2        1  LIG1   0.6100
     15 O1        -16.0253    17.8745   -15.8230 O.2        1  LIG1  -0.4900
     16 C10       -15.8157    15.6496   -15.1637 C.2        1  LIG1  -0.0500
     17 C11       -16.1395    14.3343   -15.2613 C.2        1  LIG1  -0.0800
     18 C12       -15.3299    13.6423   -14.2590 C.ar       1  LIG1  -0.1500
     19 C13       -15.1995    12.3089   -13.8646 C.ar       1  LIG1  -0.0200
     20 C14       -14.3272    11.9804   -12.8642 C.ar       1  LIG1  -0.1100
     21 Br1       -14.1482    10.1757   -12.3289 Br         1  LIG1  -0.0200
     22 C15       -13.5715    12.9637   -12.2392 C.ar       1  LIG1  -0.0500
     23 C16       -13.6862    14.2850   -12.6142 C.ar       1  LIG1  -0.1000
     24 C17       -14.5663    14.6428   -13.6286 C.ar       1  LIG1   0.0900
     25 O2        -14.8843    15.8197   -14.2022 O.3        1  LIG1  -0.1900
     26 H4        -17.4589    15.0969   -18.9513 H          1  LIG1   0.0600
     27 H5        -16.7705    15.6990   -20.4782 H          1  LIG1   0.0900
     28 H6        -15.9158    15.9839   -18.9431 H          1  LIG1   0.0900
     29 H7        -19.3698    18.0756   -20.2727 H          1  LIG1   0.1400
     30 H8        -19.0880    16.3414   -20.6192 H          1  LIG1   0.1400
     31 H9        -21.5092    18.1430   -19.2835 H          1  LIG1   0.1800
     32 H10       -22.9663    16.3795   -20.3804 H          1  LIG1   0.1300
     33 H11       -21.7599    15.0751   -19.8852 H          1  LIG1   0.1200
     34 H12       -22.1130    15.6746   -17.4460 H          1  LIG1   0.1200
     35 H13       -23.3192    16.9789   -17.9410 H          1  LIG1   0.1300
     36 H14       -19.7853    18.5756   -17.6399 H          1  LIG1   0.1500
     37 H15       -19.7177    17.0992   -16.6286 H          1  LIG1   0.1300
     38 H16       -17.6059    15.5208   -17.0502 H          1  LIG1   0.4100
     39 H17       -16.8512    13.8896   -15.9410 H          1  LIG1   0.1800
     40 H18       -15.7852    11.5407   -14.3475 H          1  LIG1   0.1500
     41 H19       -12.8867    12.6900   -11.4501 H          1  LIG1   0.1500
     42 H20       -13.0930    15.0409   -12.1210 H          1  LIG1   0.1500
@<TRIPOS>BOND
     1    1    2 1
     2    1   26 1
     3    1   27 1
     4    1   28 1
     5    2    3 1
     6    2   11 1
     7    2    4 1
     8    4    5 1
     9    4   29 1
    10    4   30 1
    11    5    6 1
    12    5    7 1
    13    5   10 1
    14    7    9 1
    15    7    8 1
    16    7   31 1
    17    8    9 1
    18    8   32 1
    19    8   33 1
    20    9   34 1
    21    9   35 1
    22   10   11 1
    23   10   36 1
    24   10   37 1
    25   11   12 1
    26   11   13 1
    27   13   14 am
    28   13   38 1
    29   14   15 2
    30   14   16 1
    31   16   25 1
    32   16   17 2
    33   17   18 1
    34   17   39 1
    35   18   24 ar
    36   18   19 ar
    37   19   20 ar
    38   19   40 1
    39   20   21 1
    40   20   22 ar
    41   22   23 ar
    42   22   41 1
    43   23   24 ar
    44   23   42 1
    45   24   25 1
##########                 Name:     ZINC000289915250
##########          Protonation:                 none
##########               SMILES:   Cc1ccccc1-n1cc(C[NH2+]C[C@@](C)(O)c2ccsc2)nn1
##########            Long Name:   NO_LONG_NAME
##########          FlexRecCode: 1
##########               Number:                 4795
##########   Ligand Source File: /nfs/db/export/3D/EF/ADMO/EFADMO.xbwo.db2.gz
##########                 Rank:                    1
##########               Setnum:                  786
##########             Matchnum:                    1
##########                Cloud:                    1
##########        Electrostatic:           -46.445461
##########                 Gist:             0.000000
##########        Van der Waals:           -34.143398
##########  Ligand Polar Desolv:            16.917025
########## Ligand Apolar Desolv:            -4.243830
##########      Internal Energy:             0.000000
##########      Receptor Energy:             0.000000
########## Receptor Desolvation:             0.000000
########## Receptor Hydrophobic:             0.000000
##########         Total Energy:           -67.915665
##########        Ligand Charge:             1.000000
##########            Arbitrary:    +999.9990
##########        Ligand Energy:             0.000000

@<TRIPOS>MOLECULE
 ZINC000289915250      none
   44    46     0     0     0



@<TRIPOS>ATOM
      1 C1        -13.3163    15.1348   -13.0651 C.3        1  LIG1  -0.1200
      2 C2        -14.0963    13.8894   -13.3987 C.ar       1  LIG1  -0.0400
      3 C3        -13.8196    12.7046   -12.7452 C.ar       1  LIG1  -0.1000
      4 C4        -14.5356    11.5615   -13.0503 C.ar       1  LIG1  -0.0800
      5 C5        -15.5301    11.6007   -14.0100 C.ar       1  LIG1  -0.1100
      6 C6        -15.8110    12.7828   -14.6673 C.ar       1  LIG1  -0.0900
      7 C7        -15.0981    13.9332   -14.3591 C.ar       1  LIG1   0.0800
      8 N1        -15.3814    15.1348   -15.0245 N.pl3      1  LIG1  -0.2200
      9 C8        -16.5958    15.5124   -15.5097 C.2        1  LIG1   0.0000
     10 C9        -16.4128    16.7313   -16.0692 C.2        1  LIG1  -0.1000
     11 C10       -17.4593    17.5785   -16.7463 C.3        1  LIG1   0.1000
     12 N2        -18.2615    16.7393   -17.6463 N.4        1  LIG1  -0.5100
     13 H1        -17.6615    16.3249   -18.3437 H          1  LIG1   0.4300
     14 H2        -18.7120    16.0101   -17.1140 H          1  LIG1   0.4400
     15 C11       -19.2815    17.5650   -18.3063 C.3        1  LIG1  -0.0400
     16 C12       -20.1171    16.6910   -19.2438 C.3        1  LIG1   0.1800
     17 C13       -19.2073    16.0626   -20.3011 C.3        1  LIG1  -0.1600
     18 O1        -20.7550    15.6583   -18.4897 O.3        1  LIG1  -0.5400
     19 C14       -21.1636    17.5382   -19.9208 C.2        1  LIG1  -0.1400
     20 C15       -20.9449    18.1563   -21.0823 C.2        1  LIG1  -0.2200
     21 S1        -22.3864    19.0445   -21.5584 S.3        1  LIG1   0.1600
     22 C16       -23.2298    18.5106   -20.1102 C.2        1  LIG1  -0.2000
     23 C17       -22.4265    17.7289   -19.3871 C.2        1  LIG1  -0.1300
     24 N3        -15.1209    17.0363   -15.9036 N.2        1  LIG1  -0.2400
     25 N4        -14.5393    16.0750   -15.2777 N.2        1  LIG1  -0.0400
     26 H3        -12.5793    14.9067   -12.2951 H          1  LIG1   0.0900
     27 H4        -12.8077    15.4954   -13.9593 H          1  LIG1   0.0800
     28 H5        -13.9975    15.9033   -12.6999 H          1  LIG1   0.0600
     29 H6        -13.0432    12.6709   -11.9953 H          1  LIG1   0.1400
     30 H7        -14.3171    10.6360   -12.5382 H          1  LIG1   0.1400
     31 H8        -16.0874    10.7065   -14.2462 H          1  LIG1   0.1400
     32 H9        -16.5878    12.8130   -15.4172 H          1  LIG1   0.1300
     33 H10       -17.5181    14.9528   -15.4588 H          1  LIG1   0.2000
     34 H11       -18.1075    18.0262   -15.9930 H          1  LIG1   0.1500
     35 H12       -16.9727    18.3663   -17.3214 H          1  LIG1   0.1500
     36 H13       -19.9298    18.0128   -17.5530 H          1  LIG1   0.1400
     37 H14       -18.7949    18.3528   -18.8815 H          1  LIG1   0.1400
     38 H15       -19.8023    15.4399   -20.9691 H          1  LIG1   0.0600
     39 H16       -18.7205    16.8504   -20.8762 H          1  LIG1   0.1000
     40 H17       -18.4504    15.4499   -19.8114 H          1  LIG1   0.0900
     41 H18       -20.1405    15.0731   -18.0259 H          1  LIG1   0.3900
     42 H19       -20.0235    18.1175   -21.6445 H          1  LIG1   0.1700
     43 H20       -24.2446    18.7720   -19.8487 H          1  LIG1   0.1700
     44 H21       -22.7353    17.2851   -18.4523 H          1  LIG1   0.1500
@<TRIPOS>BOND
     1    1    2 1
     2    1   26 1
     3    1   27 1
     4    1   28 1
     5    2    7 ar
     6    2    3 ar
     7    3    4 ar
     8    3   29 1
     9    4    5 ar
    10    4   30 1
    11    5    6 ar
    12    5   31 1
    13    6    7 ar
    14    6   32 1
    15    7    8 1
    16    8   25 1
    17    8    9 1
    18    9   10 2
    19    9   33 1
    20   10   11 1
    21   10   24 1
    22   11   12 1
    23   11   34 1
    24   11   35 1
    25   12   13 1
    26   12   14 1
    27   12   15 1
    28   15   16 1
    29   15   36 1
    30   15   37 1
    31   16   17 1
    32   16   18 1
    33   16   19 1
    34   17   38 1
    35   17   39 1
    36   17   40 1
    37   18   41 1
    38   19   23 1
    39   19   20 2
    40   20   21 1
    41   20   42 1
    42   21   22 1
    43   22   23 2
    44   22   43 1
    45   23   44 1
    46   24   25 2
##########                 Name:     ZINC000290372608
##########          Protonation:                 none
##########               SMILES:   O[C@H]1C2=CC=CC=C2OC[C@@H]1[NH2+]C1CC(C2=CC=CC=C2)C1
##########            Long Name:   NO_LONG_NAME
##########          FlexRecCode: 1
##########               Number:                 5045
##########   Ligand Source File: /nfs/db/export/3D/CG/ADRO/CGADRO.xcaw.db2.gz
##########                 Rank:                    1
##########               Setnum:                   18
##########             Matchnum:                    1
##########                Cloud:                    1
##########        Electrostatic:           -46.100861
##########                 Gist:             0.000000
##########        Van der Waals:           -30.884937
##########  Ligand Polar Desolv:            15.243435
########## Ligand Apolar Desolv:            -4.193305
##########      Internal Energy:             0.000000
##########      Receptor Energy:             0.000000
########## Receptor Desolvation:             0.000000
########## Receptor Hydrophobic:             0.000000
##########         Total Energy:           -65.935669
##########        Ligand Charge:             1.000000
##########            Arbitrary:    +999.9990
##########        Ligand Energy:             0.000000

@<TRIPOS>MOLECULE
 ZINC000290372608      none
   44    47     0     0     0



@<TRIPOS>ATOM
      1 O1        -21.0775    15.8727   -18.0060 O.3        1  LIG1  -0.5600
      2 C1        -20.4877    16.3592   -19.2133 C.3        1  LIG1   0.1400
      3 H1        -20.2050    15.5165   -19.8442 H          1  LIG1   0.0900
      4 C2        -21.4835    17.2225   -19.9457 C.ar       1  LIG1  -0.2100
      5 C3        -22.8025    16.8069   -20.0138 C.ar       1  LIG1  -0.0700
      6 C4        -23.7408    17.5712   -20.6800 C.ar       1  LIG1  -0.1300
      7 C5        -23.3641    18.7568   -21.2830 C.ar       1  LIG1  -0.0700
      8 C6        -22.0512    19.1769   -21.2170 C.ar       1  LIG1  -0.1300
      9 C7        -21.1041    18.4110   -20.5452 C.ar       1  LIG1   0.1300
     10 O2        -19.8239    18.8624   -20.4929 O.3        1  LIG1  -0.2900
     11 C8        -18.8012    17.9296   -20.1411 C.3        1  LIG1   0.0500
     12 C9        -19.2426    17.1831   -18.8758 C.3        1  LIG1  -0.0100
     13 H2        -19.4776    17.9003   -18.0894 H          1  LIG1   0.1600
     14 N1        -18.1658    16.2908   -18.4263 N.4        1  LIG1  -0.4900
     15 H3        -18.5517    15.5683   -17.8372 H          1  LIG1   0.4400
     16 H4        -17.7215    15.8693   -19.2283 H          1  LIG1   0.4300
     17 C10       -17.1739    17.0639   -17.6671 C.3        1  LIG1  -0.0200
     18 C11       -17.2867    16.8834   -16.1441 C.3        1  LIG1  -0.1400
     19 C12       -15.7493    16.8670   -16.1112 C.3        1  LIG1  -0.0500
     20 C13       -15.1767    15.8540   -15.1536 C.ar       1  LIG1  -0.0900
     21 C14       -13.9628    16.0943   -14.5376 C.ar       1  LIG1  -0.1200
     22 C15       -13.4376    15.1651   -13.6592 C.ar       1  LIG1  -0.1100
     23 C16       -14.1265    13.9958   -13.3964 C.ar       1  LIG1  -0.1100
     24 C17       -15.3408    13.7559   -14.0118 C.ar       1  LIG1  -0.1100
     25 C18       -15.8682    14.6871   -14.8869 C.ar       1  LIG1  -0.1100
     26 C19       -15.8018    16.3767   -17.5679 C.3        1  LIG1  -0.1400
     27 H5        -20.4935    15.3065   -17.4833 H          1  LIG1   0.4100
     28 H6        -23.0990    15.8807   -19.5441 H          1  LIG1   0.1300
     29 H7        -24.7683    17.2423   -20.7300 H          1  LIG1   0.1400
     30 H8        -24.0969    19.3538   -21.8057 H          1  LIG1   0.1400
     31 H9        -21.7581    20.1031   -21.6889 H          1  LIG1   0.1400
     32 H10       -18.6561    17.2194   -20.9551 H          1  LIG1   0.0900
     33 H11       -17.8698    18.4618   -19.9473 H          1  LIG1   0.1300
     34 H12       -17.1186    18.1061   -17.9816 H          1  LIG1   0.1600
     35 H13       -17.7253    17.7411   -15.6340 H          1  LIG1   0.1100
     36 H14       -17.7399    15.9370   -15.8489 H          1  LIG1   0.1100
     37 H15       -15.3044    17.8555   -15.9976 H          1  LIG1   0.1200
     38 H16       -13.4245    17.0079   -14.7430 H          1  LIG1   0.1100
     39 H17       -12.4888    15.3525   -13.1785 H          1  LIG1   0.1300
     40 H18       -13.7159    13.2695   -12.7108 H          1  LIG1   0.1300
     41 H19       -15.8790    12.8423   -13.8068 H          1  LIG1   0.1300
     42 H20       -16.8170    14.4997   -15.3676 H          1  LIG1   0.1300
     43 H21       -15.8491    15.2918   -17.6620 H          1  LIG1   0.1100
     44 H22       -15.0415    16.8253   -18.2073 H          1  LIG1   0.1100
@<TRIPOS>BOND
     1    1    2 1
     2    1   27 1
     3    2    3 1
     4    2   12 1
     5    2    4 1
     6    4    9 ar
     7    4    5 ar
     8    5    6 ar
     9    5   28 1
    10    6    7 ar
    11    6   29 1
    12    7    8 ar
    13    7   30 1
    14    8    9 ar
    15    8   31 1
    16    9   10 1
    17   10   11 1
    18   11   12 1
    19   11   32 1
    20   11   33 1
    21   12   13 1
    22   12   14 1
    23   14   15 1
    24   14   16 1
    25   14   17 1
    26   17   26 1
    27   17   18 1
    28   17   34 1
    29   18   19 1
    30   18   35 1
    31   18   36 1
    32   19   20 1
    33   19   26 1
    34   19   37 1
    35   20   25 ar
    36   20   21 ar
    37   21   22 ar
    38   21   38 1
    39   22   23 ar
    40   22   39 1
    41   23   24 ar
    42   23   40 1
    43   24   25 ar
    44   24   41 1
    45   25   42 1
    46   26   43 1
    47   26   44 1
##########                 Name:     ZINC000248536951
##########          Protonation:                 none
##########               SMILES:   C[C@H](C(=O)NC1=C(C#N)C2=C(CCC2)S1)[N@H+]1CC[C@H]([C@H](C)O)C1
##########            Long Name:   NO_LONG_NAME
##########          FlexRecCode: 1
##########               Number:                 1044
##########   Ligand Source File: /nfs/db/export/3D/EE/ADMO/EEADMO.xbou.db2.gz
##########                 Rank:                    1
##########               Setnum:                   65
##########             Matchnum:                    1
##########                Cloud:                    1
##########        Electrostatic:           -43.154724
##########                 Gist:             0.000000
##########        Van der Waals:           -32.175945
##########  Ligand Polar Desolv:            11.727147
########## Ligand Apolar Desolv:            -3.869401
##########      Internal Energy:             0.000000
##########      Receptor Energy:             0.000000
########## Receptor Desolvation:             0.000000
########## Receptor Hydrophobic:             0.000000
##########         Total Energy:           -67.472923
##########        Ligand Charge:             1.000000
##########            Arbitrary:    +999.9990
##########        Ligand Energy:             0.000000

@<TRIPOS>MOLECULE
 ZINC000248536951      none
   47    49     0     0     0



@<TRIPOS>ATOM
      1 C1        -16.8164    16.9928   -19.1586 C.3        1  LIG1  -0.1800
      2 C2        -17.6728    17.3352   -17.9378 C.3        1  LIG1   0.0200
      3 H1        -17.8074    18.4153   -17.8798 H          1  LIG1   0.1700
      4 C3        -16.9851    16.8471   -16.6889 C.2        1  LIG1   0.5000
      5 O1        -17.1478    17.4321   -15.6390 O.2        1  LIG1  -0.4900
      6 N1        -16.1891    15.7606   -16.7386 N.am       1  LIG1  -0.6000
      7 C4        -15.5557    15.3111   -15.5883 C.2        1  LIG1   0.0200
      8 C5        -14.6785    16.0478   -14.8495 C.2        1  LIG1  -0.0600
      9 C6        -14.3046    17.3901   -15.1800 C.1        1  LIG1   0.2600
     10 N2        -14.0081    18.4549   -15.4422 N.1        1  LIG1  -0.4000
     11 C7        -14.1583    15.3333   -13.6879 C.2        1  LIG1  -0.0700
     12 C8        -14.6503    14.1008   -13.5878 C.2        1  LIG1  -0.2500
     13 C9        -14.0787    13.3975   -12.3628 C.3        1  LIG1  -0.0400
     14 C10       -12.8322    14.2201   -11.9791 C.3        1  LIG1  -0.1200
     15 C11       -13.1932    15.6107   -12.5388 C.3        1  LIG1  -0.0600
     16 S1        -15.7742    13.7687   -14.9053 S.3        1  LIG1   0.3500
     17 N3        -18.9838    16.6841   -18.0612 N.4        1  LIG1  -0.3800
     18 H2        -18.8718    15.6829   -18.1158 H          1  LIG1   0.4400
     19 C12       -19.8438    17.0410   -16.9039 C.3        1  LIG1  -0.0100
     20 C13       -21.2766    16.7834   -17.4341 C.3        1  LIG1  -0.1400
     21 C14       -21.1891    17.2478   -18.9061 C.3        1  LIG1  -0.1000
     22 H3        -21.5587    18.2686   -19.0034 H          1  LIG1   0.1200
     23 C15       -21.9891    16.3061   -19.8084 C.3        1  LIG1   0.1000
     24 H4        -21.9183    16.6457   -20.8418 H          1  LIG1   0.0700
     25 C16       -23.4555    16.3046   -19.3716 C.3        1  LIG1  -0.1900
     26 O2        -21.4598    14.9828   -19.7045 O.3        1  LIG1  -0.5800
     27 C17       -19.6909    17.1843   -19.2601 C.3        1  LIG1   0.0000
     28 H5        -16.6818    15.9127   -19.2166 H          1  LIG1   0.0900
     29 H6        -17.3138    17.3460   -20.0619 H          1  LIG1   0.1000
     30 H7        -15.8436    17.4758   -19.0671 H          1  LIG1   0.1100
     31 H8        -16.0590    15.2928   -17.5782 H          1  LIG1   0.4300
     32 H9        -14.8034    13.4051   -11.5486 H          1  LIG1   0.0900
     33 H10       -13.7962    12.3743   -12.6105 H          1  LIG1   0.0800
     34 H11       -12.7054    14.2555   -10.8971 H          1  LIG1   0.0900
     35 H12       -11.9390    13.8244   -12.4627 H          1  LIG1   0.0800
     36 H13       -12.2997    16.1145   -12.9075 H          1  LIG1   0.0800
     37 H14       -13.6800    16.2133   -11.7719 H          1  LIG1   0.0900
     38 H15       -19.6276    16.3976   -16.0511 H          1  LIG1   0.1500
     39 H16       -19.7149    18.0902   -16.6379 H          1  LIG1   0.1300
     40 H17       -21.5238    15.7234   -17.3782 H          1  LIG1   0.1100
     41 H18       -22.0045    17.3799   -16.8841 H          1  LIG1   0.1200
     42 H19       -24.0254    15.6338   -20.0144 H          1  LIG1   0.0700
     43 H20       -23.5263    15.9649   -18.3383 H          1  LIG1   0.0700
     44 H21       -23.8593    17.3139   -19.4508 H          1  LIG1   0.0700
     45 H22       -20.5319    14.9088   -19.9662 H          1  LIG1   0.4000
     46 H23       -19.3273    18.1796   -19.5163 H          1  LIG1   0.1300
     47 H24       -19.5353    16.5027   -20.0964 H          1  LIG1   0.1400
@<TRIPOS>BOND
     1    1    2 1
     2    1   28 1
     3    1   29 1
     4    1   30 1
     5    2    3 1
     6    2    4 1
     7    2   17 1
     8    4    5 2
     9    4    6 am
    10    6    7 1
    11    6   31 1
    12    7   16 1
    13    7    8 2
    14    8    9 1
    15    8   11 1
    16    9   10 3
    17   11   15 1
    18   11   12 2
    19   12   13 1
    20   12   16 1
    21   13   14 1
    22   13   32 1
    23   13   33 1
    24   14   15 1
    25   14   34 1
    26   14   35 1
    27   15   36 1
    28   15   37 1
    29   17   18 1
    30   17   27 1
    31   17   19 1
    32   19   20 1
    33   19   38 1
    34   19   39 1
    35   20   21 1
    36   20   40 1
    37   20   41 1
    38   21   22 1
    39   21   23 1
    40   21   27 1
    41   23   24 1
    42   23   25 1
    43   23   26 1
    44   25   42 1
    45   25   43 1
    46   25   44 1
    47   26   45 1
    48   27   46 1
    49   27   47 1
##########                 Name:     ZINC000368226385
##########          Protonation:                 none
##########               SMILES:   C[C@H]([NH2+]CC1=CN=C(C2=CC=C(Cl)C=C2)N1)[C@H]1CCCO1
##########            Long Name:   NO_LONG_NAME
##########          FlexRecCode: 1
##########               Number:                 4756
##########   Ligand Source File: /nfs/db/export/3D/DG/ADRO/DGADRO.xaib.db2.gz
##########                 Rank:                    1
##########               Setnum:                   23
##########             Matchnum:                    1
##########                Cloud:                    1
##########        Electrostatic:           -41.124138
##########                 Gist:             0.000000
##########        Van der Waals:           -34.144222
##########  Ligand Polar Desolv:            13.467285
########## Ligand Apolar Desolv:            -4.707609
##########      Internal Energy:             0.000000
##########      Receptor Energy:             0.000000
########## Receptor Desolvation:             0.000000
########## Receptor Hydrophobic:             0.000000
##########         Total Energy:           -66.508682
##########        Ligand Charge:             1.000000
##########            Arbitrary:    +999.9990
##########        Ligand Energy:             0.000000

@<TRIPOS>MOLECULE
 ZINC000368226385      none
   42    44     0     0     0



@<TRIPOS>ATOM
      1 C1        -19.0130    16.4928   -20.6268 C.3        1  LIG1  -0.1800
      2 C2        -19.2834    17.3678   -19.4011 C.3        1  LIG1   0.0300
      3 H1        -18.9283    18.3805   -19.5922 H          1  LIG1   0.1500
      4 N1        -18.5780    16.8128   -18.2381 N.4        1  LIG1  -0.5100
      5 H2        -18.9965    17.1664   -17.3907 H          1  LIG1   0.4300
      6 H3        -18.6462    15.8062   -18.2523 H          1  LIG1   0.4300
      7 C3        -17.1643    17.2086   -18.2882 C.3        1  LIG1   0.0800
      8 C4        -16.4408    16.6392   -17.0952 C.2        1  LIG1  -0.1200
      9 C5        -15.5706    17.2921   -16.2984 C.2        1  LIG1   0.0600
     10 N2        -15.1463    16.4450   -15.3534 N.2        1  LIG1  -0.4700
     11 C6        -15.7218    15.2764   -15.5287 C.2        1  LIG1   0.3100
     12 C7        -15.5149    14.0749   -14.6914 C.ar       1  LIG1  -0.0400
     13 C8        -16.1862    12.8887   -14.9905 C.ar       1  LIG1  -0.0900
     14 C9        -15.9889    11.7712   -14.2063 C.ar       1  LIG1  -0.1100
     15 C10       -15.1270    11.8251   -13.1238 C.ar       1  LIG1  -0.0100
     16 Cl1       -14.8840    10.4148   -12.1411 Cl         1  LIG1  -0.0500
     17 C11       -14.4577    12.9992   -12.8226 C.ar       1  LIG1  -0.1100
     18 C12       -14.6430    14.1216   -13.6028 C.ar       1  LIG1  -0.0500
     19 N3        -16.5469    15.3627   -16.6117 N.pl3      1  LIG1  -0.5600
     20 C13       -20.7733    17.3990   -19.1211 C.3        1  LIG1   0.0500
     21 H4        -21.2590    18.1284   -19.8129 H          1  LIG1   0.1000
     22 C14       -21.4417    16.0407   -19.2441 C.3        1  LIG1  -0.1500
     23 C15       -22.6332    16.2087   -18.3351 C.3        1  LIG1  -0.1600
     24 C16       -22.0523    17.0346   -17.2071 C.3        1  LIG1   0.0500
     25 O1        -21.0074    17.8399   -17.7729 O.3        1  LIG1  -0.3900
     26 H5        -19.3681    15.4801   -20.4357 H          1  LIG1   0.1100
     27 H6        -19.5363    16.9046   -21.4897 H          1  LIG1   0.0800
     28 H7        -17.9420    16.4703   -20.8281 H          1  LIG1   0.0900
     29 H8        -16.7123    16.8268   -19.2036 H          1  LIG1   0.1400
     30 H9        -17.0907    18.2960   -18.2727 H          1  LIG1   0.1600
     31 H10       -15.2677    18.3233   -16.4048 H          1  LIG1   0.1900
     32 H11       -16.8593    12.8457   -15.8340 H          1  LIG1   0.1300
     33 H12       -16.5079    10.8526   -14.4367 H          1  LIG1   0.1400
     34 H13       -13.7864    13.0353   -11.9774 H          1  LIG1   0.1500
     35 H14       -14.1202    15.0368   -13.3671 H          1  LIG1   0.1500
     36 H15       -17.0996    14.6527   -16.9741 H          1  LIG1   0.4300
     37 H16       -21.7463    15.8394   -20.2830 H          1  LIG1   0.1000
     38 H17       -20.7745    15.2358   -18.8973 H          1  LIG1   0.0900
     39 H18       -23.4490    16.7466   -18.8355 H          1  LIG1   0.0900
     40 H19       -22.9981    15.2415   -17.9660 H          1  LIG1   0.1000
     41 H20       -22.8143    17.6838   -16.7745 H          1  LIG1   0.0800
     42 H21       -21.6348    16.3887   -16.4338 H          1  LIG1   0.0800
@<TRIPOS>BOND
     1    1    2 1
     2    1   26 1
     3    1   27 1
     4    1   28 1
     5    2    3 1
     6    2    4 1
     7    2   20 1
     8    4    5 1
     9    4    6 1
    10    4    7 1
    11    7    8 1
    12    7   29 1
    13    7   30 1
    14    8   19 1
    15    8    9 2
    16    9   10 1
    17    9   31 1
    18   10   11 2
    19   11   12 1
    20   11   19 1
    21   12   18 ar
    22   12   13 ar
    23   13   14 ar
    24   13   32 1
    25   14   15 ar
    26   14   33 1
    27   15   16 1
    28   15   17 ar
    29   17   18 ar
    30   17   34 1
    31   18   35 1
    32   19   36 1
    33   20   21 1
    34   20   25 1
    35   20   22 1
    36   22   23 1
    37   22   37 1
    38   22   38 1
    39   23   24 1
    40   23   39 1
    41   23   40 1
    42   24   25 1
    43   24   41 1
    44   24   42 1
##########                 Name:     ZINC000191583186
##########          Protonation:                 none
##########               SMILES:   CC1=CC=C(C[C@@H](CO)[NH2+][C@@H](C)CCC2=CC=CC=C2[N+](=O)[O-])C=C1
##########            Long Name:   NO_LONG_NAME
##########          FlexRecCode: 1
##########               Number:                 1372
##########   Ligand Source File: /nfs/db/export/3D/EG/ADRO/EGADRO.xbvb.db2.gz
##########                 Rank:                    1
##########               Setnum:                   96
##########             Matchnum:                    1
##########                Cloud:                    1
##########        Electrostatic:           -47.331333
##########                 Gist:             0.000000
##########        Van der Waals:           -35.141159
##########  Ligand Polar Desolv:            11.928079
########## Ligand Apolar Desolv:            -4.953140
##########      Internal Energy:             0.000000
##########      Receptor Energy:             0.000000
########## Receptor Desolvation:             0.000000
########## Receptor Hydrophobic:             0.000000
##########         Total Energy:           -75.497551
##########        Ligand Charge:             1.000000
##########            Arbitrary:    +999.9990
##########        Ligand Energy:             0.000000

@<TRIPOS>MOLECULE
 ZINC000191583186      none
   52    53     0     0     0



@<TRIPOS>ATOM
      1 C1        -15.2579    21.1839   -23.5457 C.3        1  LIG1  -0.1300
      2 C2        -15.4512    20.0791   -22.5392 C.ar       1  LIG1  -0.0700
      3 C3        -16.1319    18.9302   -22.8964 C.ar       1  LIG1  -0.1200
      4 C4        -16.3092    17.9166   -21.9733 C.ar       1  LIG1  -0.1200
      5 C5        -15.8055    18.0519   -20.6930 C.ar       1  LIG1  -0.1300
      6 C6        -15.9994    16.9473   -19.6865 C.3        1  LIG1  -0.0900
      7 C7        -17.3043    17.1775   -18.9214 C.3        1  LIG1   0.0300
      8 H1        -17.2581    18.1361   -18.4046 H          1  LIG1   0.1500
      9 C8        -18.4771    17.1840   -19.9039 C.3        1  LIG1   0.0500
     10 O1        -18.5377    15.9273   -20.5816 O.3        1  LIG1  -0.5700
     11 N1        -17.4932    16.1008   -17.9403 N.4        1  LIG1  -0.5000
     12 H2        -18.4657    16.0542   -17.6750 H          1  LIG1   0.4300
     13 H3        -17.2134    15.2212   -18.3480 H          1  LIG1   0.4300
     14 C9        -16.6739    16.3721   -16.7515 C.3        1  LIG1   0.0100
     15 H4        -15.7066    16.7688   -17.0598 H          1  LIG1   0.1600
     16 C10       -17.3857    17.3955   -15.8644 C.3        1  LIG1  -0.1800
     17 C11       -16.4667    15.0743   -15.9679 C.3        1  LIG1  -0.1300
     18 C12       -15.2522    15.2217   -15.0493 C.3        1  LIG1  -0.1100
     19 C13       -15.0480    13.9435   -14.2775 C.ar       1  LIG1  -0.0200
     20 C14       -15.9015    12.8741   -14.4733 C.ar       1  LIG1  -0.1100
     21 C15       -15.7142    11.7015   -13.7654 C.ar       1  LIG1  -0.0600
     22 C16       -14.6732    11.5984   -12.8621 C.ar       1  LIG1  -0.1100
     23 C17       -13.8188    12.6677   -12.6669 C.ar       1  LIG1  -0.0500
     24 C18       -14.0035    13.8385   -13.3778 C.ar       1  LIG1  -0.0500
     25 N2        -13.0889    14.9834   -13.1688 N.pl3      1  LIG1   0.0400
     26 O2        -13.2565    16.0179   -13.7895 O.2        1  LIG1  -0.1300
     27 O3        -12.1686    14.8910   -12.3763 O.2        1  LIG1  -0.2100
     28 C19       -15.1237    19.2002   -20.3363 C.ar       1  LIG1  -0.1100
     29 C20       -14.9430    20.2120   -21.2606 C.ar       1  LIG1  -0.1100
     30 H5        -15.7237    20.9011   -24.4897 H          1  LIG1   0.0800
     31 H6        -15.7179    22.0993   -23.1733 H          1  LIG1   0.0700
     32 H7        -14.1921    21.3506   -23.7020 H          1  LIG1   0.0700
     33 H8        -16.5256    18.8246   -23.8966 H          1  LIG1   0.1300
     34 H9        -16.8418    17.0194   -22.2521 H          1  LIG1   0.1300
     35 H10       -16.0455    15.9887   -20.2033 H          1  LIG1   0.1200
     36 H11       -15.1638    16.9428   -18.9865 H          1  LIG1   0.1000
     37 H12       -19.4067    17.3481   -19.3590 H          1  LIG1   0.0700
     38 H13       -18.3368    17.9829   -20.6320 H          1  LIG1   0.0900
     39 H14       -18.6616    15.1692   -19.9942 H          1  LIG1   0.4100
     40 H15       -16.7778    17.5967   -14.9823 H          1  LIG1   0.0800
     41 H16       -17.5333    18.3199   -16.4227 H          1  LIG1   0.1000
     42 H17       -18.3530    16.9988   -15.5563 H          1  LIG1   0.0800
     43 H18       -17.3528    14.8667   -15.3682 H          1  LIG1   0.1100
     44 H19       -16.2984    14.2526   -16.6640 H          1  LIG1   0.0900
     45 H20       -14.3659    15.4293   -15.6491 H          1  LIG1   0.1000
     46 H21       -15.4205    16.0434   -14.3533 H          1  LIG1   0.1000
     47 H22       -16.7150    12.9547   -15.1792 H          1  LIG1   0.1500
     48 H23       -16.3816    10.8661   -13.9178 H          1  LIG1   0.1500
     49 H24       -14.5272    10.6826   -12.3084 H          1  LIG1   0.1500
     50 H25       -13.0055    12.5873   -11.9608 H          1  LIG1   0.1600
     51 H26       -14.7298    19.3057   -19.3363 H          1  LIG1   0.1300
     52 H27       -14.4102    21.1092   -20.9819 H          1  LIG1   0.1300
@<TRIPOS>BOND
     1    1    2 1
     2    1   30 1
     3    1   31 1
     4    1   32 1
     5    2   29 ar
     6    2    3 ar
     7    3    4 ar
     8    3   33 1
     9    4    5 ar
    10    4   34 1
    11    5    6 1
    12    5   28 ar
    13    6    7 1
    14    6   35 1
    15    6   36 1
    16    7    8 1
    17    7    9 1
    18    7   11 1
    19    9   10 1
    20    9   37 1
    21    9   38 1
    22   10   39 1
    23   11   12 1
    24   11   13 1
    25   11   14 1
    26   14   15 1
    27   14   16 1
    28   14   17 1
    29   16   40 1
    30   16   41 1
    31   16   42 1
    32   17   18 1
    33   17   43 1
    34   17   44 1
    35   18   19 1
    36   18   45 1
    37   18   46 1
    38   19   24 ar
    39   19   20 ar
    40   20   21 ar
    41   20   47 1
    42   21   22 ar
    43   21   48 1
    44   22   23 ar
    45   22   49 1
    46   23   24 ar
    47   23   50 1
    48   24   25 1
    49   25   26 2
    50   25   27 2
    51   28   29 ar
    52   28   51 1
    53   29   52 1
##########                 Name:     ZINC000375299581
##########          Protonation:                 none
##########               SMILES:   C#CCOC1=CC=CC=C1C[N@@H+]1CC[C@@]2(C1)C(=O)NC1=CC=CC=C12
##########            Long Name:   NO_LONG_NAME
##########          FlexRecCode: 1
##########               Number:                 9404
##########   Ligand Source File: /nfs/db/export/3D/EF/EDMO/EFEDMO.xcr.db2.gz
##########                 Rank:                    1
##########               Setnum:                   35
##########             Matchnum:                    1
##########                Cloud:                    1
##########        Electrostatic:           -38.992786
##########                 Gist:             0.000000
##########        Van der Waals:           -35.561493
##########  Ligand Polar Desolv:            12.634989
########## Ligand Apolar Desolv:            -5.673904
##########      Internal Energy:             0.000000
##########      Receptor Energy:             0.000000
########## Receptor Desolvation:             0.000000
########## Receptor Hydrophobic:             0.000000
##########         Total Energy:           -67.593193
##########        Ligand Charge:             1.000000
##########            Arbitrary:    +999.9990
##########        Ligand Energy:             0.000000

@<TRIPOS>MOLECULE
 ZINC000375299581      none
   46    49     0     0     0



@<TRIPOS>ATOM
      1 C1        -18.5441    21.4241   -22.6644 C.1        1  LIG1  -0.1300
      2 C2        -19.4643    20.8873   -22.1711 C.1        1  LIG1  -0.2300
      3 C3        -20.6182    20.2143   -21.5526 C.3        1  LIG1   0.1800
      4 O1        -20.1643    19.3642   -20.4974 O.3        1  LIG1  -0.3200
      5 C4        -20.9017    18.2518   -20.2410 C.ar       1  LIG1   0.1500
      6 C5        -22.2682    18.2541   -20.4789 C.ar       1  LIG1  -0.2000
      7 C6        -23.0155    17.1217   -20.2178 C.ar       1  LIG1  -0.0400
      8 C7        -22.4025    15.9871   -19.7196 C.ar       1  LIG1  -0.1500
      9 C8        -21.0404    15.9825   -19.4811 C.ar       1  LIG1  -0.0500
     10 C9        -20.2878    17.1099   -19.7462 C.ar       1  LIG1  -0.1900
     11 C10       -18.8034    17.1040   -19.4867 C.3        1  LIG1   0.0500
     12 N1        -18.5370    16.4846   -18.1816 N.4        1  LIG1  -0.3900
     13 H1        -18.8807    15.5360   -18.1784 H          1  LIG1   0.4300
     14 C11       -19.2079    17.2609   -17.1156 C.3        1  LIG1  -0.0100
     15 C12       -18.2349    17.2066   -15.9087 C.3        1  LIG1  -0.1100
     16 C13       -16.8670    17.2563   -16.6132 C.3        1  LIG1  -0.0700
     17 C14       -17.0836    16.4880   -17.9169 C.3        1  LIG1   0.0200
     18 C15       -16.4253    18.6702   -16.8616 C.2        1  LIG1   0.5400
     19 O2        -17.0171    19.5127   -17.5028 O.2        1  LIG1  -0.4800
     20 N2        -15.2430    18.8197   -16.2320 N.am       1  LIG1  -0.6500
     21 C16       -14.8409    17.6502   -15.5822 C.ar       1  LIG1   0.1500
     22 C17       -13.7042    17.3732   -14.8275 C.ar       1  LIG1  -0.1300
     23 C18       -13.5250    16.1217   -14.2751 C.ar       1  LIG1  -0.0700
     24 C19       -14.4723    15.1326   -14.4656 C.ar       1  LIG1  -0.1300
     25 C20       -15.6048    15.3989   -15.2150 C.ar       1  LIG1  -0.0600
     26 C21       -15.7875    16.6457   -15.7692 C.ar       1  LIG1  -0.1500
     27 H2        -17.7211    21.9042   -23.1057 H          1  LIG1   0.2300
     28 H3        -21.3011    20.9617   -21.1486 H          1  LIG1   0.1000
     29 H4        -21.1357    19.6171   -22.3033 H          1  LIG1   0.0900
     30 H5        -22.7475    19.1403   -20.8675 H          1  LIG1   0.1400
     31 H6        -24.0796    17.1229   -20.4029 H          1  LIG1   0.1400
     32 H7        -22.9885    15.1032   -19.5157 H          1  LIG1   0.1400
     33 H8        -20.5638    15.0951   -19.0914 H          1  LIG1   0.1400
     34 H9        -18.3001    16.5349   -20.2684 H          1  LIG1   0.1400
     35 H10       -18.4306    18.1283   -19.4857 H          1  LIG1   0.1400
     36 H11       -19.3582    18.2921   -17.4352 H          1  LIG1   0.1400
     37 H12       -20.1612    16.8013   -16.8548 H          1  LIG1   0.1400
     38 H13       -18.3709    18.0704   -15.2579 H          1  LIG1   0.1200
     39 H14       -18.3542    16.2771   -15.3520 H          1  LIG1   0.1200
     40 H15       -16.7252    15.4641   -17.8094 H          1  LIG1   0.1500
     41 H16       -16.5572    16.9833   -18.7328 H          1  LIG1   0.1400
     42 H17       -14.7306    19.6433   -16.2307 H          1  LIG1   0.4300
     43 H18       -12.9598    18.1406   -14.6744 H          1  LIG1   0.1400
     44 H19       -12.6410    15.9136   -13.6908 H          1  LIG1   0.1400
     45 H20       -14.3284    14.1545   -14.0310 H          1  LIG1   0.1400
     46 H21       -16.3457    14.6276   -15.3659 H          1  LIG1   0.1300
@<TRIPOS>BOND
     1    1    2 3
     2    1   27 1
     3    2    3 1
     4    3    4 1
     5    3   28 1
     6    3   29 1
     7    4    5 1
     8    5   10 ar
     9    5    6 ar
    10    6    7 ar
    11    6   30 1
    12    7    8 ar
    13    7   31 1
    14    8    9 ar
    15    8   32 1
    16    9   10 ar
    17    9   33 1
    18   10   11 1
    19   11   12 1
    20   11   34 1
    21   11   35 1
    22   12   13 1
    23   12   17 1
    24   12   14 1
    25   14   15 1
    26   14   36 1
    27   14   37 1
    28   15   16 1
    29   15   38 1
    30   15   39 1
    31   16   26 1
    32   16   17 1
    33   16   18 1
    34   17   40 1
    35   17   41 1
    36   18   19 2
    37   18   20 am
    38   20   21 1
    39   20   42 1
    40   21   26 ar
    41   21   22 ar
    42   22   23 ar
    43   22   43 1
    44   23   24 ar
    45   23   44 1
    46   24   25 ar
    47   24   45 1
    48   25   26 ar
    49   25   46 1
##########                 Name:     ZINC000450352542
##########          Protonation:                 none
##########               SMILES:   C[C@H]1C[C@@H](NC2=C3C=CC(Br)=CC3=NC=N2)CC[N@@H+]1C
##########            Long Name:   NO_LONG_NAME
##########          FlexRecCode: 1
##########               Number:                11544
##########   Ligand Source File: /nfs/db/export/3D/EG/ADRO/EGADRO.xalf.db2.gz
##########                 Rank:                    1
##########               Setnum:                   22
##########             Matchnum:                    1
##########                Cloud:                    1
##########        Electrostatic:           -46.012093
##########                 Gist:             0.000000
##########        Van der Waals:           -31.642071
##########  Ligand Polar Desolv:            18.138582
########## Ligand Apolar Desolv:            -5.701132
##########      Internal Energy:             0.000000
##########      Receptor Energy:             0.000000
########## Receptor Desolvation:             0.000000
########## Receptor Hydrophobic:             0.000000
##########         Total Energy:           -65.216705
##########        Ligand Charge:             1.000000
##########            Arbitrary:    +999.9990
##########        Ligand Energy:             0.000000

@<TRIPOS>MOLECULE
 ZINC000450352542      none
   40    42     0     0     0



@<TRIPOS>ATOM
      1 C1        -18.8558    17.3832   -16.5003 C.3        1  LIG1  -0.1800
      2 C2        -18.2403    17.4672   -17.8974 C.3        1  LIG1   0.0300
      3 H1        -18.5850    18.4012   -18.3853 H          1  LIG1   0.1400
      4 C3        -16.6995    17.4655   -17.8531 C.3        1  LIG1  -0.1500
      5 C4        -16.0498    16.0910   -18.0134 C.3        1  LIG1   0.1500
      6 H2        -14.9435    16.2346   -18.0943 H          1  LIG1   0.1100
      7 N1        -16.3093    15.2787   -16.8417 N.pl3      1  LIG1  -0.7000
      8 C5        -15.4341    15.3053   -15.7770 C.ar       1  LIG1   0.4700
      9 C6        -15.2609    14.1696   -14.9493 C.ar       1  LIG1  -0.1900
     10 C7        -15.9600    12.9769   -15.1667 C.ar       1  LIG1  -0.0700
     11 C8        -15.7519    11.9152   -14.3368 C.ar       1  LIG1  -0.1000
     12 C9        -14.8533    12.0025   -13.2757 C.ar       1  LIG1  -0.0500
     13 Br1       -14.5955    10.5061   -12.1486 Br         1  LIG1  -0.0200
     14 C10       -14.1563    13.1507   -13.0377 C.ar       1  LIG1  -0.0700
     15 C11       -14.3463    14.2606   -13.8715 C.ar       1  LIG1   0.1900
     16 N2        -13.6863    15.4127   -13.6820 N.ar       1  LIG1  -0.5300
     17 C12       -13.8870    16.4335   -14.4813 C.ar       1  LIG1   0.3500
     18 N3        -14.7271    16.3938   -15.5030 N.ar       1  LIG1  -0.5900
     19 C13       -16.5311    15.3703   -19.2767 C.3        1  LIG1  -0.1600
     20 C14       -17.8169    15.9428   -19.8618 C.3        1  LIG1   0.0000
     21 N4        -18.7615    16.3112   -18.7460 N.4        1  LIG1  -0.3800
     22 H3        -18.8249    15.4784   -18.1164 H          1  LIG1   0.4200
     23 C15       -20.1486    16.5643   -19.2821 C.3        1  LIG1  -0.0500
     24 H4        -18.5232    16.4676   -16.0111 H          1  LIG1   0.0800
     25 H5        -18.5404    18.2448   -15.9119 H          1  LIG1   0.1100
     26 H6        -19.9428    17.3772   -16.5818 H          1  LIG1   0.0900
     27 H7        -16.3207    18.1432   -18.6522 H          1  LIG1   0.1200
     28 H8        -16.3718    17.9134   -16.8872 H          1  LIG1   0.0900
     29 H9        -17.0987    14.7163   -16.8066 H          1  LIG1   0.4200
     30 H10       -16.6596    12.8980   -15.9858 H          1  LIG1   0.1300
     31 H11       -16.2910    10.9945   -14.5040 H          1  LIG1   0.1400
     32 H12       -13.4629    13.2041   -12.2114 H          1  LIG1   0.1600
     33 H13       -13.3387    17.3461   -14.2999 H          1  LIG1   0.2000
     34 H14       -15.7297    15.4156   -20.0442 H          1  LIG1   0.1200
     35 H15       -16.6846    14.2958   -19.0416 H          1  LIG1   0.0900
     36 H16       -17.6009    16.8381   -20.4384 H          1  LIG1   0.1300
     37 H17       -18.3034    15.2042   -20.4930 H          1  LIG1   0.1400
     38 H18       -20.4692    15.7100   -19.8782 H          1  LIG1   0.1300
     39 H19       -20.8390    16.7067   -18.4506 H          1  LIG1   0.1300
     40 H20       -20.1401    17.4590   -19.9045 H          1  LIG1   0.1200
@<TRIPOS>BOND
     1    1    2 1
     2    1   24 1
     3    1   25 1
     4    1   26 1
     5    2    3 1
     6    2   21 1
     7    2    4 1
     8    4    5 1
     9    4   27 1
    10    4   28 1
    11    5    6 1
    12    5    7 1
    13    5   19 1
    14    7    8 1
    15    7   29 1
    16    8   18 ar
    17    8    9 ar
    18    9   15 ar
    19    9   10 ar
    20   10   11 ar
    21   10   30 1
    22   11   12 ar
    23   11   31 1
    24   12   13 1
    25   12   14 ar
    26   14   15 ar
    27   14   32 1
    28   15   16 ar
    29   16   17 ar
    30   17   18 ar
    31   17   33 1
    32   19   20 1
    33   19   34 1
    34   19   35 1
    35   20   21 1
    36   20   36 1
    37   20   37 1
    38   21   22 1
    39   21   23 1
    40   23   38 1
    41   23   39 1
    42   23   40 1
##########                 Name:     ZINC000566176942
##########          Protonation:                 none
##########               SMILES:   C[C@H](C(=O)NC1=CC=C(Cl)C=N1)[N@H+]1CC[C@@H](C2=CC=CN=C2)C1
##########            Long Name:   NO_LONG_NAME
##########          FlexRecCode: 1
##########               Number:                13340
##########   Ligand Source File: /nfs/db/export/3D/EF/ADMO/EFADMO.xadg.db2.gz
##########                 Rank:                    1
##########               Setnum:                   18
##########             Matchnum:                    1
##########                Cloud:                    1
##########        Electrostatic:           -45.519665
##########                 Gist:             0.000000
##########        Van der Waals:           -34.918083
##########  Ligand Polar Desolv:            17.509701
########## Ligand Apolar Desolv:            -5.211001
##########      Internal Energy:             0.000000
##########      Receptor Energy:             0.000000
########## Receptor Desolvation:             0.000000
########## Receptor Hydrophobic:             0.000000
##########         Total Energy:           -68.139046
##########        Ligand Charge:             1.000000
##########            Arbitrary:    +999.9990
##########        Ligand Energy:             0.000000

@<TRIPOS>MOLECULE
 ZINC000566176942      none
   43    45     0     0     0



@<TRIPOS>ATOM
      1 C1        -16.7566    16.1517   -19.6537 C.3        1  LIG1  -0.1800
      2 C2        -17.3372    16.9690   -18.4977 C.3        1  LIG1   0.0100
      3 H1        -17.3936    18.0183   -18.7871 H          1  LIG1   0.1700
      4 C3        -16.4500    16.8285   -17.2878 C.2        1  LIG1   0.5000
      5 O1        -15.9319    17.8098   -16.7985 O.2        1  LIG1  -0.4600
      6 N1        -16.2321    15.6121   -16.7495 N.am       1  LIG1  -0.6400
      7 C4        -15.4110    15.4821   -15.6298 C.ar       1  LIG1   0.3400
      8 C5        -14.3698    16.3812   -15.4318 C.ar       1  LIG1  -0.1800
      9 C6        -13.5625    16.2415   -14.3164 C.ar       1  LIG1  -0.0400
     10 C7        -13.8261    15.2021   -13.4337 C.ar       1  LIG1  -0.1100
     11 Cl1       -12.8445    14.9821   -12.0189 Cl         1  LIG1  -0.0300
     12 C8        -14.8789    14.3449   -13.6938 C.ar       1  LIG1   0.1500
     13 N2        -15.6341    14.5068   -14.7631 N.ar       1  LIG1  -0.4600
     14 N3        -18.6835    16.4763   -18.1776 N.4        1  LIG1  -0.3800
     15 H2        -18.6441    15.5047   -17.9081 H          1  LIG1   0.4300
     16 C9        -19.2767    17.2836   -17.0895 C.3        1  LIG1  -0.0100
     17 C10       -20.7842    17.3981   -17.3822 C.3        1  LIG1  -0.1400
     18 C11       -20.9965    16.6369   -18.7109 C.3        1  LIG1  -0.0500
     19 H3        -21.3258    15.6153   -18.5218 H          1  LIG1   0.1200
     20 C12       -21.9858    17.3604   -19.5878 C.ar       1  LIG1  -0.1500
     21 C13       -21.7335    18.6568   -20.0093 C.ar       1  LIG1  -0.0600
     22 C14       -22.6720    19.2832   -20.8154 C.ar       1  LIG1  -0.1600
     23 C15       -23.8193    18.5991   -21.1695 C.ar       1  LIG1   0.1200
     24 N4        -24.0263    17.3661   -20.7498 N.ar       1  LIG1  -0.4800
     25 C16       -23.1537    16.7378   -19.9866 C.ar       1  LIG1   0.1100
     26 C17       -19.5830    16.6472   -19.3471 C.3        1  LIG1   0.0000
     27 H4        -16.7002    15.1024   -19.3645 H          1  LIG1   0.1000
     28 H5        -17.3984    16.2534   -20.5289 H          1  LIG1   0.1100
     29 H6        -15.7575    16.5174   -19.8912 H          1  LIG1   0.0900
     30 H7        -16.6464    14.8272   -17.1409 H          1  LIG1   0.4300
     31 H8        -14.1930    17.1780   -16.1390 H          1  LIG1   0.1500
     32 H9        -12.7458    16.9250   -14.1365 H          1  LIG1   0.1600
     33 H10       -15.0880    13.5348   -13.0110 H          1  LIG1   0.1800
     34 H11       -19.1210    16.7872   -16.1317 H          1  LIG1   0.1500
     35 H12       -18.8249    18.2755   -17.0745 H          1  LIG1   0.1300
     36 H13       -21.3612    16.9326   -16.5831 H          1  LIG1   0.1100
     37 H14       -21.0691    18.4441   -17.4958 H          1  LIG1   0.1100
     38 H15       -20.8276    19.1669   -19.7164 H          1  LIG1   0.1400
     39 H16       -22.5083    20.2928   -21.1620 H          1  LIG1   0.1500
     40 H17       -24.5552    19.0801   -21.7967 H          1  LIG1   0.1700
     41 H18       -23.3579    15.7280   -19.6624 H          1  LIG1   0.1500
     42 H19       -19.3912    17.5987   -19.8429 H          1  LIG1   0.1400
     43 H20       -19.4699    15.8183   -20.0460 H          1  LIG1   0.1400
@<TRIPOS>BOND
     1    1    2 1
     2    1   27 1
     3    1   28 1
     4    1   29 1
     5    2    3 1
     6    2    4 1
     7    2   14 1
     8    4    5 2
     9    4    6 am
    10    6    7 1
    11    6   30 1
    12    7   13 ar
    13    7    8 ar
    14    8    9 ar
    15    8   31 1
    16    9   10 ar
    17    9   32 1
    18   10   11 1
    19   10   12 ar
    20   12   13 ar
    21   12   33 1
    22   14   15 1
    23   14   26 1
    24   14   16 1
    25   16   17 1
    26   16   34 1
    27   16   35 1
    28   17   18 1
    29   17   36 1
    30   17   37 1
    31   18   19 1
    32   18   20 1
    33   18   26 1
    34   20   25 ar
    35   20   21 ar
    36   21   22 ar
    37   21   38 1
    38   22   23 ar
    39   22   39 1
    40   23   24 ar
    41   23   40 1
    42   24   25 ar
    43   25   41 1
    44   26   42 1
    45   26   43 1
##########                 Name:     ZINC000366646246
##########          Protonation:                 none
##########               SMILES:   COC(=O)C1=C(C)NC(C(=O)[C@@H](C)N2C[C@H](O)C3(CC3)C2)=C1C
##########            Long Name:   NO_LONG_NAME
##########          FlexRecCode: 1
##########               Number:                 5417
##########   Ligand Source File: /nfs/db/export/3D/DD/ADRO/DDADRO.xadd.db2.gz
##########                 Rank:                    1
##########               Setnum:                  198
##########             Matchnum:                    1
##########                Cloud:                    1
##########        Electrostatic:           -50.110672
##########                 Gist:             0.000000
##########        Van der Waals:           -30.861576
##########  Ligand Polar Desolv:            16.968767
########## Ligand Apolar Desolv:            -3.298328
##########      Internal Energy:             0.000000
##########      Receptor Energy:             0.000000
########## Receptor Desolvation:             0.000000
########## Receptor Hydrophobic:             0.000000
##########         Total Energy:           -67.301804
##########        Ligand Charge:             1.000000
##########            Arbitrary:    +999.9990
##########        Ligand Energy:             0.000000

@<TRIPOS>MOLECULE
 ZINC000366646246      none
   48    50     0     0     0



@<TRIPOS>ATOM
      1 C1        -11.9927    14.1897   -12.2589 C.3        1  LIG1   0.0300
      2 O1        -13.1074    14.8019   -12.9596 O.3        1  LIG1  -0.3500
      3 C2        -13.8063    14.0161   -13.8021 C.2        1  LIG1   0.5400
      4 O2        -13.4929    12.8509   -13.9473 O.2        1  LIG1  -0.4800
      5 C3        -14.9502    14.5692   -14.5469 C.2        1  LIG1  -0.2100
      6 C4        -16.0769    13.8766   -14.9553 C.2        1  LIG1   0.1700
      7 C5        -16.3455    12.4140   -14.7113 C.3        1  LIG1  -0.1100
      8 N1        -16.8899    14.7233   -15.6038 N.pl3      1  LIG1  -0.5200
      9 C6        -16.3138    15.9770   -15.6312 C.2        1  LIG1  -0.1300
     10 C7        -16.8697    17.1349   -16.2264 C.2        1  LIG1   0.4200
     11 O3        -17.0984    18.1158   -15.5483 O.2        1  LIG1  -0.4400
     12 C8        -17.1777    17.1500   -17.7014 C.3        1  LIG1  -0.0200
     13 H1        -17.0781    18.1660   -18.0830 H          1  LIG1   0.1500
     14 C9        -16.1997    16.2309   -18.4361 C.3        1  LIG1  -0.1800
     15 N2        -18.5515    16.6775   -17.9195 N.4        1  LIG1  -0.3800
     16 H2        -18.6559    15.7368   -17.5698 H          1  LIG1   0.4400
     17 C10       -19.5177    17.5842   -17.2471 C.3        1  LIG1  -0.0400
     18 C11       -20.8429    17.3243   -18.0098 C.3        1  LIG1   0.1200
     19 H3        -21.5049    18.1874   -17.9394 H          1  LIG1   0.1100
     20 O4        -21.4901    16.1502   -17.5154 O.3        1  LIG1  -0.5500
     21 C12       -20.3650    17.1199   -19.4592 C.3        1  LIG1  -0.1800
     22 C13       -21.2827    16.5179   -20.5151 C.3        1  LIG1  -0.1300
     23 C14       -20.8854    17.9948   -20.5920 C.3        1  LIG1  -0.1400
     24 C15       -18.8850    16.7258   -19.3617 C.3        1  LIG1   0.0300
     25 C16       -15.1054    15.9061   -14.9723 C.2        1  LIG1   0.0300
     26 C17       -14.1324    17.0363   -14.7558 C.3        1  LIG1  -0.1100
     27 H4        -11.5175    14.9298   -11.6152 H          1  LIG1   0.0700
     28 H5        -12.3563    13.3603   -11.6522 H          1  LIG1   0.1100
     29 H6        -11.2675    13.8193   -12.9835 H          1  LIG1   0.0700
     30 H7        -17.3084    12.1442   -15.1450 H          1  LIG1   0.1000
     31 H8        -15.5588    11.8180   -15.1738 H          1  LIG1   0.0900
     32 H9        -16.3637    12.2220   -13.6385 H          1  LIG1   0.1000
     33 H10       -17.7477    14.4910   -15.9927 H          1  LIG1   0.4200
     34 H11       -16.4226    16.2419   -19.5031 H          1  LIG1   0.0900
     35 H12       -15.1803    16.5814   -18.2742 H          1  LIG1   0.1000
     36 H13       -16.2995    15.2148   -18.0546 H          1  LIG1   0.1100
     37 H14       -19.6224    17.3217   -16.1943 H          1  LIG1   0.1400
     38 H15       -19.2091    18.6239   -17.3561 H          1  LIG1   0.1400
     39 H16       -20.9623    15.3444   -17.6013 H          1  LIG1   0.4000
     40 H17       -20.8371    15.8379   -21.2412 H          1  LIG1   0.1100
     41 H18       -22.3062    16.2864   -20.2200 H          1  LIG1   0.1200
     42 H19       -21.6475    18.7348   -20.3476 H          1  LIG1   0.1100
     43 H20       -20.1784    18.2863   -21.3688 H          1  LIG1   0.1100
     44 H21       -18.2669    17.4715   -19.8616 H          1  LIG1   0.1300
     45 H22       -18.7291    15.7470   -19.8151 H          1  LIG1   0.1400
     46 H23       -14.5312    17.9488   -15.1990 H          1  LIG1   0.0900
     47 H24       -13.9826    17.1870   -13.6867 H          1  LIG1   0.0800
     48 H25       -13.1799    16.7905   -15.2251 H          1  LIG1   0.0900
@<TRIPOS>BOND
     1    1    2 1
     2    1   27 1
     3    1   28 1
     4    1   29 1
     5    2    3 1
     6    3    4 2
     7    3    5 1
     8    5   25 1
     9    5    6 2
    10    6    7 1
    11    6    8 1
    12    7   30 1
    13    7   31 1
    14    7   32 1
    15    8    9 1
    16    8   33 1
    17    9   10 1
    18    9   25 2
    19   10   11 2
    20   10   12 1
    21   12   13 1
    22   12   14 1
    23   12   15 1
    24   14   34 1
    25   14   35 1
    26   14   36 1
    27   15   16 1
    28   15   24 1
    29   15   17 1
    30   17   18 1
    31   17   37 1
    32   17   38 1
    33   18   19 1
    34   18   20 1
    35   18   21 1
    36   20   39 1
    37   21   23 1
    38   21   22 1
    39   21   24 1
    40   22   23 1
    41   22   40 1
    42   22   41 1
    43   23   42 1
    44   23   43 1
    45   24   44 1
    46   24   45 1
    47   25   26 1
    48   26   46 1
    49   26   47 1
    50   26   48 1
##########                 Name:     ZINC000625626121
##########          Protonation:                 none
##########               SMILES:   C[C@@H](C1=CC=C(F)C(Cl)=C1)[N@@H+]1C[C@@H](O)[C@H](OC2=CN(C)N=C2)C1
##########            Long Name:   NO_LONG_NAME
##########          FlexRecCode: 1
##########               Number:                 3735
##########   Ligand Source File: /nfs/db/export/3D/EE/ADMO/EEADMO.xalh.db2.gz
##########                 Rank:                    1
##########               Setnum:                  125
##########             Matchnum:                    1
##########                Cloud:                    1
##########        Electrostatic:           -45.503658
##########                 Gist:             0.000000
##########        Van der Waals:           -32.351841
##########  Ligand Polar Desolv:            16.693525
########## Ligand Apolar Desolv:            -2.809169
##########      Internal Energy:             0.000000
##########      Receptor Energy:             0.000000
########## Receptor Desolvation:             0.000000
########## Receptor Hydrophobic:             0.000000
##########         Total Energy:           -63.971142
##########        Ligand Charge:             1.000000
##########            Arbitrary:    +999.9990
##########        Ligand Energy:             0.000000

@<TRIPOS>MOLECULE
 ZINC000625626121      none
   43    45     0     0     0



@<TRIPOS>ATOM
      1 C1        -17.3835    16.3744   -20.2402 C.3        1  LIG1  -0.1800
      2 C2        -17.9571    17.2412   -19.1175 C.3        1  LIG1   0.0900
      3 H1        -17.3650    18.1514   -19.0224 H          1  LIG1   0.1500
      4 C3        -19.3843    17.6017   -19.4404 C.ar       1  LIG1  -0.1400
      5 C4        -19.6611    18.7514   -20.1558 C.ar       1  LIG1  -0.0900
      6 C5        -20.9697    19.0837   -20.4528 C.ar       1  LIG1  -0.1300
      7 C6        -22.0035    18.2645   -20.0343 C.ar       1  LIG1   0.1400
      8 F1        -23.2827    18.5881   -20.3246 F          1  LIG1  -0.1100
      9 C7        -21.7253    17.1114   -19.3173 C.ar       1  LIG1  -0.0700
     10 Cl1       -23.0205    16.0821   -18.7911 Cl         1  LIG1  -0.0200
     11 C8        -20.4152    16.7790   -19.0257 C.ar       1  LIG1  -0.0500
     12 N1        -17.9148    16.4951   -17.8527 N.4        1  LIG1  -0.3900
     13 H2        -18.4588    15.6484   -17.9241 H          1  LIG1   0.4300
     14 C9        -18.4107    17.3387   -16.7350 C.3        1  LIG1  -0.0400
     15 C10       -17.8083    16.6975   -15.4665 C.3        1  LIG1   0.0600
     16 H3        -17.5258    17.4688   -14.7500 H          1  LIG1   0.1200
     17 O1        -18.7427    15.7916   -14.8766 O.3        1  LIG1  -0.5500
     18 C11       -16.5583    15.9378   -15.9565 C.3        1  LIG1   0.0800
     19 H4        -16.6569    14.8723   -15.7481 H          1  LIG1   0.1200
     20 O2        -15.3839    16.4584   -15.3307 O.3        1  LIG1  -0.2800
     21 C12       -14.6480    15.5927   -14.5792 C.2        1  LIG1  -0.0600
     22 C13       -15.1260    14.5234   -13.8963 C.2        1  LIG1   0.0500
     23 N2        -14.0727    13.9253   -13.2807 N.pl3      1  LIG1  -0.3600
     24 C14       -14.1325    12.7307   -12.4348 C.3        1  LIG1   0.1000
     25 N3        -12.9193    14.6537   -13.5992 N.2        1  LIG1  -0.2600
     26 C15       -13.2621    15.6463   -14.3799 C.2        1  LIG1   0.0000
     27 C16       -16.5111    16.1811   -17.4815 C.3        1  LIG1   0.0000
     28 H5        -17.9756    15.4642   -20.3353 H          1  LIG1   0.1100
     29 H6        -17.4148    16.9279   -21.1786 H          1  LIG1   0.0900
     30 H7        -16.3513    16.1136   -20.0066 H          1  LIG1   0.0800
     31 H8        -18.8545    19.3909   -20.4826 H          1  LIG1   0.1400
     32 H9        -21.1852    19.9826   -21.0114 H          1  LIG1   0.1600
     33 H10       -20.1976    15.8805   -18.4673 H          1  LIG1   0.1600
     34 H11       -18.0579    18.3640   -16.8470 H          1  LIG1   0.1500
     35 H12       -19.4997    17.3130   -16.6935 H          1  LIG1   0.1400
     36 H13       -19.0056    15.0642   -15.4571 H          1  LIG1   0.4000
     37 H14       -16.1569    14.2050   -13.8499 H          1  LIG1   0.1900
     38 H15       -13.1311    12.4853   -12.0812 H          1  LIG1   0.0800
     39 H16       -14.7826    12.9220   -11.5810 H          1  LIG1   0.1000
     40 H17       -14.5285    11.8957   -13.0129 H          1  LIG1   0.1000
     41 H18       -12.5921    16.3855   -14.7938 H          1  LIG1   0.1900
     42 H19       -16.1691    15.2848   -17.9990 H          1  LIG1   0.1500
     43 H20       -15.8612    17.0254   -17.7117 H          1  LIG1   0.1500
@<TRIPOS>BOND
     1    1    2 1
     2    1   28 1
     3    1   29 1
     4    1   30 1
     5    2    3 1
     6    2    4 1
     7    2   12 1
     8    4   11 ar
     9    4    5 ar
    10    5    6 ar
    11    5   31 1
    12    6    7 ar
    13    6   32 1
    14    7    8 1
    15    7    9 ar
    16    9   10 1
    17    9   11 ar
    18   11   33 1
    19   12   13 1
    20   12   27 1
    21   12   14 1
    22   14   15 1
    23   14   34 1
    24   14   35 1
    25   15   16 1
    26   15   17 1
    27   15   18 1
    28   17   36 1
    29   18   19 1
    30   18   20 1
    31   18   27 1
    32   20   21 1
    33   21   26 1
    34   21   22 2
    35   22   23 1
    36   22   37 1
    37   23   24 1
    38   23   25 1
    39   24   38 1
    40   24   39 1
    41   24   40 1
    42   25   26 2
    43   26   41 1
    44   27   42 1
    45   27   43 1
##########                 Name:     ZINC000378200657
##########          Protonation:                 none
##########               SMILES:   C1=NN(C[C@@H]2CCC[N@H+]2CC2=CC(C3=CC=CC=C3)=CS2)C=N1
##########            Long Name:   NO_LONG_NAME
##########          FlexRecCode: 1
##########               Number:                 7682
##########   Ligand Source File: /nfs/db/export/3D/DH/ADMO/DHADMO.xax.db2.gz
##########                 Rank:                    1
##########               Setnum:                  108
##########             Matchnum:                    1
##########                Cloud:                    1
##########        Electrostatic:           -41.970428
##########                 Gist:             0.000000
##########        Van der Waals:           -35.737160
##########  Ligand Polar Desolv:            13.855711
########## Ligand Apolar Desolv:            -8.356341
##########      Internal Energy:             0.000000
##########      Receptor Energy:             0.000000
########## Receptor Desolvation:             0.000000
########## Receptor Hydrophobic:             0.000000
##########         Total Energy:           -72.208221
##########        Ligand Charge:             1.000000
##########            Arbitrary:    +999.9990
##########        Ligand Energy:             0.000000

@<TRIPOS>MOLECULE
 ZINC000378200657      none
   44    47     0     0     0



@<TRIPOS>ATOM
      1 C1        -23.3188    18.3031   -20.0142 C.2        1  LIG1   0.2500
      2 N1        -22.2434    18.2694   -19.2719 N.2        1  LIG1  -0.3700
      3 N2        -21.8996    16.9164   -19.1171 N.pl3      1  LIG1  -0.4100
      4 C2        -20.7638    16.3800   -18.3631 C.3        1  LIG1   0.1100
      5 C3        -19.5082    17.1926   -18.6853 C.3        1  LIG1   0.0100
      6 H1        -19.6614    18.2362   -18.4105 H          1  LIG1   0.1400
      7 C4        -19.1870    17.0877   -20.1910 C.3        1  LIG1  -0.1300
      8 C5        -17.6378    17.0087   -20.2133 C.3        1  LIG1  -0.1400
      9 C6        -17.3482    16.1826   -18.9353 C.3        1  LIG1  -0.0200
     10 N3        -18.3537    16.6447   -17.9498 N.4        1  LIG1  -0.3900
     11 H2        -18.6524    15.8677   -17.3795 H          1  LIG1   0.4300
     12 C7        -17.7677    17.6880   -17.0976 C.3        1  LIG1   0.0900
     13 C8        -16.5887    17.1217   -16.3490 C.2        1  LIG1  -0.2800
     14 C9        -16.5685    15.9407   -15.7366 C.2        1  LIG1  -0.0700
     15 C10       -15.3651    15.6258   -15.1081 C.2        1  LIG1  -0.0600
     16 C11       -15.1512    14.3542   -14.3740 C.ar       1  LIG1  -0.0400
     17 C12       -14.2766    14.3111   -13.2900 C.ar       1  LIG1  -0.1100
     18 C13       -14.0818    13.1257   -12.6105 C.ar       1  LIG1  -0.1100
     19 C14       -14.7525    11.9817   -13.0041 C.ar       1  LIG1  -0.1100
     20 C15       -15.6218    12.0186   -14.0794 C.ar       1  LIG1  -0.1100
     21 C16       -15.8285    13.2000   -14.7626 C.ar       1  LIG1  -0.1100
     22 C17       -14.4132    16.5701   -15.2219 C.2        1  LIG1  -0.1800
     23 S1        -15.0337    17.9205   -16.1618 S.3        1  LIG1   0.1900
     24 C18       -22.8201    16.2117   -19.7975 C.2        1  LIG1   0.2900
     25 N4        -23.6653    17.0561   -20.3306 N.2        1  LIG1  -0.5300
     26 H3        -23.8440    19.1967   -20.3177 H          1  LIG1   0.2300
     27 H4        -20.9738    16.4437   -17.2954 H          1  LIG1   0.1100
     28 H5        -20.6034    15.3380   -18.6402 H          1  LIG1   0.1500
     29 H6        -19.6250    16.1850   -20.6165 H          1  LIG1   0.1100
     30 H7        -19.5354    17.9737   -20.7220 H          1  LIG1   0.1200
     31 H8        -17.2862    16.4872   -21.1033 H          1  LIG1   0.1200
     32 H9        -17.1950    18.0024   -20.1444 H          1  LIG1   0.1000
     33 H10       -17.4723    15.1184   -19.1352 H          1  LIG1   0.1300
     34 H11       -16.3411    16.3865   -18.5718 H          1  LIG1   0.1400
     35 H12       -17.4378    18.5211   -17.7184 H          1  LIG1   0.1400
     36 H13       -18.5154    18.0386   -16.3863 H          1  LIG1   0.1300
     37 H14       -17.4202    15.2766   -15.7268 H          1  LIG1   0.1500
     38 H15       -13.7520    15.2035   -12.9823 H          1  LIG1   0.1200
     39 H16       -13.4042    13.0911   -11.7702 H          1  LIG1   0.1300
     40 H17       -14.5964    11.0560   -12.4700 H          1  LIG1   0.1300
     41 H18       -16.1425    11.1224   -14.3827 H          1  LIG1   0.1300
     42 H19       -16.5077    13.2278   -15.6018 H          1  LIG1   0.1200
     43 H20       -13.4196    16.5068   -14.8034 H          1  LIG1   0.1800
     44 H21       -22.8553    15.1361   -19.8887 H          1  LIG1   0.2300
@<TRIPOS>BOND
     1    1   25 1
     2    1    2 2
     3    1   26 1
     4    2    3 1
     5    3    4 1
     6    3   24 1
     7    4    5 1
     8    4   27 1
     9    4   28 1
    10    5    6 1
    11    5   10 1
    12    5    7 1
    13    7    8 1
    14    7   29 1
    15    7   30 1
    16    8    9 1
    17    8   31 1
    18    8   32 1
    19    9   10 1
    20    9   33 1
    21    9   34 1
    22   10   11 1
    23   10   12 1
    24   12   13 1
    25   12   35 1
    26   12   36 1
    27   13   23 1
    28   13   14 2
    29   14   15 1
    30   14   37 1
    31   15   16 1
    32   15   22 2
    33   16   21 ar
    34   16   17 ar
    35   17   18 ar
    36   17   38 1
    37   18   19 ar
    38   18   39 1
    39   19   20 ar
    40   19   40 1
    41   20   21 ar
    42   20   41 1
    43   21   42 1
    44   22   23 1
    45   22   43 1
    46   24   25 2
    47   24   44 1
##########                 Name:     ZINC000497495625
##########          Protonation:                 none
##########               SMILES:   CC1=C(CNC(=O)C[N@H+]2CCC[C@H]2C2CCCC2)SC=C1
##########            Long Name:   NO_LONG_NAME
##########          FlexRecCode: 1
##########               Number:                 6890
##########   Ligand Source File: /nfs/db/export/3D/DG/ADMO/DGADMO.xabh.db2.gz
##########                 Rank:                    1
##########               Setnum:                  135
##########             Matchnum:                    1
##########                Cloud:                    1
##########        Electrostatic:           -46.337753
##########                 Gist:             0.000000
##########        Van der Waals:           -26.844303
##########  Ligand Polar Desolv:            11.651373
########## Ligand Apolar Desolv:            -4.950959
##########      Internal Energy:             0.000000
##########      Receptor Energy:             0.000000
########## Receptor Desolvation:             0.000000
########## Receptor Hydrophobic:             0.000000
##########         Total Energy:           -66.481636
##########        Ligand Charge:             1.000000
##########            Arbitrary:    +999.9990
##########        Ligand Energy:             0.000000

@<TRIPOS>MOLECULE
 ZINC000497495625      none
   48    50     0     0     0



@<TRIPOS>ATOM
      1 C1        -13.9963    15.0353   -13.1652 C.3        1  LIG1  -0.1000
      2 C2        -14.7300    14.0566   -14.0455 C.2        1  LIG1  -0.0600
      3 C3        -15.4560    14.4414   -15.0963 C.2        1  LIG1  -0.2400
      4 C4        -15.6450    15.8671   -15.5464 C.3        1  LIG1   0.2000
      5 N1        -16.5042    15.8948   -16.7328 N.am       1  LIG1  -0.7000
      6 C5        -16.8126    17.0709   -17.3142 C.2        1  LIG1   0.5000
      7 O1        -16.3790    18.1063   -16.8552 O.2        1  LIG1  -0.5300
      8 C6        -17.6964    17.0994   -18.5345 C.3        1  LIG1  -0.0600
      9 N2        -19.0251    16.5018   -18.2015 N.4        1  LIG1  -0.3700
     10 H1        -18.8401    15.4833   -17.8850 H          1  LIG1   0.4300
     11 C7        -19.7274    17.1378   -17.0188 C.3        1  LIG1  -0.0100
     12 C8        -21.2120    17.0677   -17.3480 C.3        1  LIG1  -0.1400
     13 C9        -21.3229    16.1354   -18.5429 C.3        1  LIG1  -0.1400
     14 C10       -20.0384    16.3796   -19.3237 C.3        1  LIG1   0.0300
     15 H2        -19.7850    15.4995   -19.9060 H          1  LIG1   0.1400
     16 C11       -20.0967    17.6310   -20.1821 C.3        1  LIG1  -0.1200
     17 C12       -19.0318    17.6616   -21.2740 C.3        1  LIG1  -0.1100
     18 C13       -19.5413    18.7084   -22.2601 C.3        1  LIG1  -0.1300
     19 C14       -21.0570    18.7741   -22.0651 C.3        1  LIG1  -0.1300
     20 C15       -21.3886    17.7505   -20.9843 C.3        1  LIG1  -0.1500
     21 S1        -16.1586    13.0302   -15.8763 S.3        1  LIG1   0.1200
     22 C16       -15.4044    11.9656   -14.6967 C.2        1  LIG1  -0.1900
     23 C17       -14.6967    12.6899   -13.8285 C.2        1  LIG1  -0.1400
     24 H3        -14.1678    16.0490   -13.5271 H          1  LIG1   0.0700
     25 H4        -14.3615    14.9481   -12.1419 H          1  LIG1   0.0700
     26 H5        -12.9287    14.8166   -13.1897 H          1  LIG1   0.0800
     27 H6        -16.1117    16.4419   -14.7465 H          1  LIG1   0.0900
     28 H7        -14.6759    16.3030   -15.7894 H          1  LIG1   0.1000
     29 H8        -16.8509    15.0665   -17.0998 H          1  LIG1   0.4100
     30 H9        -17.8330    18.1306   -18.8601 H          1  LIG1   0.1700
     31 H10       -17.2297    16.5246   -19.3345 H          1  LIG1   0.1600
     32 H11       -19.4900    16.5710   -16.1173 H          1  LIG1   0.1400
     33 H12       -19.3883    18.1698   -16.9167 H          1  LIG1   0.1300
     34 H13       -21.7917    16.6773   -16.4816 H          1  LIG1   0.1000
     35 H14       -21.6120    18.0777   -17.5909 H          1  LIG1   0.1200
     36 H15       -21.3880    15.0853   -18.2219 H          1  LIG1   0.1200
     37 H16       -22.2010    16.3818   -19.1581 H          1  LIG1   0.1100
     38 H17       -19.9866    18.5350   -19.5356 H          1  LIG1   0.1000
     39 H18       -18.0545    17.9547   -20.8607 H          1  LIG1   0.0800
     40 H19       -18.9391    16.6778   -21.7593 H          1  LIG1   0.0800
     41 H20       -19.0865    19.6911   -22.0543 H          1  LIG1   0.0700
     42 H21       -19.3014    18.4171   -23.2957 H          1  LIG1   0.0800
     43 H22       -21.3518    19.7731   -21.7410 H          1  LIG1   0.0700
     44 H23       -21.5675    18.5193   -22.9949 H          1  LIG1   0.0700
     45 H24       -21.6442    16.7989   -21.4336 H          1  LIG1   0.0800
     46 H25       -22.1920    18.1140   -20.3558 H          1  LIG1   0.0800
     47 H26       -15.4965    10.8897   -14.6805 H          1  LIG1   0.1700
     48 H27       -14.1461    12.2444   -13.0131 H          1  LIG1   0.1500
@<TRIPOS>BOND
     1    1    2 1
     2    1   24 1
     3    1   25 1
     4    1   26 1
     5    2   23 1
     6    2    3 2
     7    3    4 1
     8    3   21 1
     9    4    5 1
    10    4   27 1
    11    4   28 1
    12    5    6 am
    13    5   29 1
    14    6    7 2
    15    6    8 1
    16    8    9 1
    17    8   30 1
    18    8   31 1
    19    9   10 1
    20    9   14 1
    21    9   11 1
    22   11   12 1
    23   11   32 1
    24   11   33 1
    25   12   13 1
    26   12   34 1
    27   12   35 1
    28   13   14 1
    29   13   36 1
    30   13   37 1
    31   14   15 1
    32   14   16 1
    33   16   20 1
    34   16   17 1
    35   16   38 1
    36   17   18 1
    37   17   39 1
    38   17   40 1
    39   18   19 1
    40   18   41 1
    41   18   42 1
    42   19   20 1
    43   19   43 1
    44   19   44 1
    45   20   45 1
    46   20   46 1
    47   21   22 1
    48   22   23 2
    49   22   47 1
    50   23   48 1
##########                 Name:     ZINC000464682470
##########          Protonation:                 none
##########               SMILES:   C1=CC=C(C[C@H]2CC[N@@H+]2CC2=NN=C(C3=CC=CC=C3)S2)C=C1
##########            Long Name:   NO_LONG_NAME
##########          FlexRecCode: 1
##########               Number:                 9284
##########   Ligand Source File: /nfs/db/export/3D/DI/ADMO/DIADMO.xaq.db2.gz
##########                 Rank:                    1
##########               Setnum:                   31
##########             Matchnum:                    1
##########                Cloud:                    1
##########        Electrostatic:           -39.298302
##########                 Gist:             0.000000
##########        Van der Waals:           -34.475349
##########  Ligand Polar Desolv:            16.214413
########## Ligand Apolar Desolv:            -7.161820
##########      Internal Energy:             0.000000
##########      Receptor Energy:             0.000000
########## Receptor Desolvation:             0.000000
########## Receptor Hydrophobic:             0.000000
##########         Total Energy:           -64.721062
##########        Ligand Charge:             1.000000
##########            Arbitrary:    +999.9990
##########        Ligand Energy:             0.000000

@<TRIPOS>MOLECULE
 ZINC000464682470      none
   43    46     0     0     0



@<TRIPOS>ATOM
      1 C1        -22.6747    18.4245   -21.6205 C.ar       1  LIG1  -0.1100
      2 C2        -23.0052    17.7866   -20.4396 C.ar       1  LIG1  -0.1000
      3 C3        -22.0311    17.1250   -19.7153 C.ar       1  LIG1  -0.1200
      4 C4        -20.7268    17.1009   -20.1724 C.ar       1  LIG1  -0.1300
      5 C5        -19.6647    16.3802   -19.3826 C.3        1  LIG1  -0.0900
      6 C6        -19.0265    17.3482   -18.3844 C.3        1  LIG1   0.0400
      7 H1        -18.5579    18.2049   -18.8688 H          1  LIG1   0.1600
      8 C7        -19.9573    17.7341   -17.2261 C.3        1  LIG1  -0.1500
      9 C8        -18.6749    17.6304   -16.3888 C.3        1  LIG1  -0.0100
     10 N1        -18.1568    16.6838   -17.3957 N.4        1  LIG1  -0.4100
     11 H2        -18.4146    15.7251   -17.2154 H          1  LIG1   0.4400
     12 C9        -16.7231    16.8496   -17.6701 C.3        1  LIG1   0.0900
     13 C10       -15.9233    16.1382   -16.6093 C.2        1  LIG1  -0.1100
     14 N2        -14.8897    16.6193   -15.9976 N.2        1  LIG1  -0.2000
     15 N3        -14.3267    15.8953   -15.1298 N.2        1  LIG1  -0.2500
     16 C11       -14.8516    14.7156   -14.9335 C.2        1  LIG1   0.1100
     17 C12       -14.3735    13.6947   -13.9759 C.ar       1  LIG1  -0.0600
     18 C13       -15.0303    12.4680   -13.8737 C.ar       1  LIG1  -0.0800
     19 C14       -14.5790    11.5197   -12.9788 C.ar       1  LIG1  -0.1200
     20 C15       -13.4778    11.7832   -12.1839 C.ar       1  LIG1  -0.0800
     21 C16       -12.8222    12.9976   -12.2804 C.ar       1  LIG1  -0.1200
     22 C17       -13.2603    13.9522   -13.1751 C.ar       1  LIG1  -0.0600
     23 S1        -16.2391    14.5642   -16.0121 S.3        1  LIG1   0.1800
     24 C18       -20.3965    17.7377   -21.3542 C.ar       1  LIG1  -0.1100
     25 C19       -21.3702    18.4009   -22.0773 C.ar       1  LIG1  -0.1100
     26 H3        -23.4366    18.9375   -22.1885 H          1  LIG1   0.1300
     27 H4        -24.0242    17.8054   -20.0824 H          1  LIG1   0.1300
     28 H5        -22.2891    16.6272   -18.7923 H          1  LIG1   0.1200
     29 H6        -20.1157    15.5471   -18.8433 H          1  LIG1   0.1200
     30 H7        -18.9006    16.0022   -20.0617 H          1  LIG1   0.1000
     31 H8        -20.3634    18.7430   -17.2972 H          1  LIG1   0.1400
     32 H9        -20.7084    16.9811   -16.9874 H          1  LIG1   0.1300
     33 H10       -18.1116    18.5623   -16.3399 H          1  LIG1   0.1500
     34 H11       -18.8315    17.1798   -15.4087 H          1  LIG1   0.1400
     35 H12       -16.4888    16.4262   -18.6468 H          1  LIG1   0.1600
     36 H13       -16.4724    17.9103   -17.6640 H          1  LIG1   0.1500
     37 H14       -15.8903    12.2613   -14.4935 H          1  LIG1   0.1300
     38 H15       -15.0868    10.5698   -12.8985 H          1  LIG1   0.1400
     39 H16       -13.1287    11.0377   -11.4847 H          1  LIG1   0.1400
     40 H17       -11.9633    13.1973   -11.6568 H          1  LIG1   0.1400
     41 H18       -12.7476    14.8999   -13.2495 H          1  LIG1   0.1400
     42 H19       -19.3775    17.7189   -21.7112 H          1  LIG1   0.1300
     43 H20       -21.1123    18.8987   -23.0004 H          1  LIG1   0.1300
@<TRIPOS>BOND
     1    1   25 ar
     2    1    2 ar
     3    1   26 1
     4    2    3 ar
     5    2   27 1
     6    3    4 ar
     7    3   28 1
     8    4    5 1
     9    4   24 ar
    10    5    6 1
    11    5   29 1
    12    5   30 1
    13    6    7 1
    14    6   10 1
    15    6    8 1
    16    8    9 1
    17    8   31 1
    18    8   32 1
    19    9   10 1
    20    9   33 1
    21    9   34 1
    22   10   11 1
    23   10   12 1
    24   12   13 1
    25   12   35 1
    26   12   36 1
    27   13   23 1
    28   13   14 2
    29   14   15 1
    30   15   16 2
    31   16   17 1
    32   16   23 1
    33   17   22 ar
    34   17   18 ar
    35   18   19 ar
    36   18   37 1
    37   19   20 ar
    38   19   38 1
    39   20   21 ar
    40   20   39 1
    41   21   22 ar
    42   21   40 1
    43   22   41 1
    44   24   25 ar
    45   24   42 1
    46   25   43 1
##########                 Name:     ZINC000593910140
##########          Protonation:                 none
##########               SMILES:   O=C(NCCC1=CC=CC=C1[N+](=O)[O-])[C@H]1CC[C@H](C2CC2)[NH2+]1
##########            Long Name:   NO_LONG_NAME
##########          FlexRecCode: 1
##########               Number:                 3641
##########   Ligand Source File: /nfs/db/export/3D/DD/BDRO/DDBDRO.xab.db2.gz
##########                 Rank:                    1
##########               Setnum:                   47
##########             Matchnum:                    1
##########                Cloud:                    1
##########        Electrostatic:           -41.084106
##########                 Gist:             0.000000
##########        Van der Waals:           -32.846687
##########  Ligand Polar Desolv:            14.949106
########## Ligand Apolar Desolv:            -4.983451
##########      Internal Energy:             0.000000
##########      Receptor Energy:             0.000000
########## Receptor Desolvation:             0.000000
########## Receptor Hydrophobic:             0.000000
##########         Total Energy:           -63.965137
##########        Ligand Charge:             1.000000
##########            Arbitrary:    +999.9990
##########        Ligand Energy:             0.000000

@<TRIPOS>MOLECULE
 ZINC000593910140      none
   44    46     0     0     0



@<TRIPOS>ATOM
      1 O1        -16.3415    18.0384   -17.0777 O.2        1  LIG1  -0.5300
      2 C1        -17.0530    17.1171   -17.4174 C.2        1  LIG1   0.5100
      3 N1        -16.9306    15.9151   -16.8200 N.am       1  LIG1  -0.6900
      4 C2        -15.9378    15.7218   -15.7602 C.3        1  LIG1   0.1300
      5 C3        -16.0052    14.2790   -15.2555 C.3        1  LIG1  -0.1100
      6 C4        -14.9840    14.0800   -14.1652 C.ar       1  LIG1  -0.0200
      7 C5        -14.1769    15.1316   -13.7741 C.ar       1  LIG1  -0.1100
      8 C6        -13.2400    14.9490   -12.7739 C.ar       1  LIG1  -0.0600
      9 C7        -13.1108    13.7150   -12.1649 C.ar       1  LIG1  -0.1100
     10 C8        -13.9188    12.6633   -12.5555 C.ar       1  LIG1  -0.0500
     11 C9        -14.8584    12.8470   -13.5524 C.ar       1  LIG1  -0.0400
     12 N2        -15.7234    11.7211   -13.9707 N.pl3      1  LIG1   0.0300
     13 O2        -16.5459    11.8808   -14.8548 O.2        1  LIG1  -0.1500
     14 O3        -15.6128    10.6349   -13.4309 O.2        1  LIG1  -0.1700
     15 C10       -18.0787    17.3178   -18.5034 C.3        1  LIG1   0.0100
     16 H1        -18.0454    18.3435   -18.8707 H          1  LIG1   0.1700
     17 C11       -17.8371    16.3210   -19.6642 C.3        1  LIG1  -0.1300
     18 C12       -19.2484    16.2359   -20.3028 C.3        1  LIG1  -0.1300
     19 C13       -20.1886    16.3383   -19.0835 C.3        1  LIG1   0.0600
     20 H2        -20.4986    15.3415   -18.7696 H          1  LIG1   0.1400
     21 C14       -21.4173    17.1763   -19.4426 C.3        1  LIG1  -0.2000
     22 C15       -22.6432    16.4372   -19.9826 C.3        1  LIG1  -0.1400
     23 C16       -22.6618    17.0167   -18.5668 C.3        1  LIG1  -0.1800
     24 N3        -19.4308    16.9947   -18.0002 N.4        1  LIG1  -0.5000
     25 H3        -19.3577    16.3709   -17.2106 H          1  LIG1   0.4400
     26 H4        -19.9019    17.8424   -17.7216 H          1  LIG1   0.4300
     27 H5        -17.4997    15.1782   -17.0918 H          1  LIG1   0.4100
     28 H6        -14.9416    15.9226   -16.1546 H          1  LIG1   0.0800
     29 H7        -16.1473    16.4048   -14.9371 H          1  LIG1   0.0800
     30 H8        -17.0013    14.0781   -14.8612 H          1  LIG1   0.1200
     31 H9        -15.7956    13.5959   -16.0787 H          1  LIG1   0.0900
     32 H10       -14.2778    16.0958   -14.2499 H          1  LIG1   0.1500
     33 H11       -12.6088    15.7705   -12.4687 H          1  LIG1   0.1500
     34 H12       -12.3784    13.5722   -11.3840 H          1  LIG1   0.1500
     35 H13       -13.8176    11.6991   -12.0799 H          1  LIG1   0.1600
     36 H14       -17.1106    16.7167   -20.3738 H          1  LIG1   0.1300
     37 H15       -17.5209    15.3492   -19.2850 H          1  LIG1   0.1100
     38 H16       -19.4125    17.0685   -20.9871 H          1  LIG1   0.1100
     39 H17       -19.3831    15.2829   -20.8145 H          1  LIG1   0.1200
     40 H18       -21.2090    18.1676   -19.8452 H          1  LIG1   0.1300
     41 H19       -23.2417    16.9421   -20.7410 H          1  LIG1   0.1200
     42 H20       -22.5743    15.3538   -20.0823 H          1  LIG1   0.1100
     43 H21       -22.6050    16.3147   -17.7348 H          1  LIG1   0.1000
     44 H22       -23.2723    17.9029   -18.3937 H          1  LIG1   0.1200
@<TRIPOS>BOND
     1    1    2 2
     2    2    3 am
     3    2   15 1
     4    3    4 1
     5    3   27 1
     6    4    5 1
     7    4   28 1
     8    4   29 1
     9    5    6 1
    10    5   30 1
    11    5   31 1
    12    6   11 ar
    13    6    7 ar
    14    7    8 ar
    15    7   32 1
    16    8    9 ar
    17    8   33 1
    18    9   10 ar
    19    9   34 1
    20   10   11 ar
    21   10   35 1
    22   11   12 1
    23   12   13 2
    24   12   14 2
    25   15   16 1
    26   15   24 1
    27   15   17 1
    28   17   18 1
    29   17   36 1
    30   17   37 1
    31   18   19 1
    32   18   38 1
    33   18   39 1
    34   19   20 1
    35   19   21 1
    36   19   24 1
    37   21   23 1
    38   21   22 1
    39   21   40 1
    40   22   23 1
    41   22   41 1
    42   22   42 1
    43   23   43 1
    44   23   44 1
    45   24   25 1
    46   24   26 1
##########                 Name:     ZINC000613759362
##########          Protonation:                 none
##########               SMILES:   C[N@@H+](CCC1=CC=CC=C1)CC(=O)NCC1=CC=CC=C1C(F)(F)F
##########            Long Name:   NO_LONG_NAME
##########          FlexRecCode: 1
##########               Number:                15196
##########   Ligand Source File: /nfs/db/export/3D/FG/ADMO/FGADMO.xajk.db2.gz
##########                 Rank:                    1
##########               Setnum:                  199
##########             Matchnum:                    1
##########                Cloud:                    1
##########        Electrostatic:           -39.676903
##########                 Gist:             0.000000
##########        Van der Waals:           -37.134064
##########  Ligand Polar Desolv:            13.072515
########## Ligand Apolar Desolv:            -7.178155
##########      Internal Energy:             0.000000
##########      Receptor Energy:             0.000000
########## Receptor Desolvation:             0.000000
########## Receptor Hydrophobic:             0.000000
##########         Total Energy:           -70.916603
##########        Ligand Charge:             1.000000
##########            Arbitrary:    +999.9990
##########        Ligand Energy:             0.000000

@<TRIPOS>MOLECULE
 ZINC000613759362      none
   47    48     0     0     0



@<TRIPOS>ATOM
      1 C1        -18.7416    16.8120   -16.0158 C.3        1  LIG1  -0.0600
      2 N1        -18.1690    16.8589   -17.3678 N.4        1  LIG1  -0.3700
      3 H1        -18.0385    15.9190   -17.7105 H          1  LIG1   0.4300
      4 C2        -19.0822    17.5838   -18.2614 C.3        1  LIG1  -0.0100
      5 C3        -20.2128    16.6513   -18.7007 C.3        1  LIG1  -0.1000
      6 C4        -21.1497    17.3950   -19.6175 C.ar       1  LIG1  -0.1100
      7 C5        -22.2268    18.0848   -19.0934 C.ar       1  LIG1  -0.1100
      8 C6        -23.0861    18.7669   -19.9343 C.ar       1  LIG1  -0.1100
      9 C7        -22.8679    18.7596   -21.2993 C.ar       1  LIG1  -0.1000
     10 C8        -21.7904    18.0703   -21.8234 C.ar       1  LIG1  -0.1100
     11 C9        -20.9286    17.3917   -20.9820 C.ar       1  LIG1  -0.1100
     12 C10       -16.8731    17.5495   -17.3270 C.3        1  LIG1  -0.0300
     13 C11       -16.1204    17.1327   -16.0895 C.2        1  LIG1   0.5000
     14 O1        -16.2562    17.7566   -15.0584 O.2        1  LIG1  -0.5200
     15 N2        -15.2964    16.0670   -16.1290 N.am       1  LIG1  -0.7000
     16 C12       -14.5647    15.6620   -14.9261 C.3        1  LIG1   0.1400
     17 C13       -14.9510    14.2539   -14.5533 C.ar       1  LIG1  -0.0800
     18 C14       -15.8666    13.5618   -15.3234 C.ar       1  LIG1  -0.1000
     19 C15       -16.2211    12.2699   -14.9814 C.ar       1  LIG1  -0.0800
     20 C16       -15.6596    11.6705   -13.8698 C.ar       1  LIG1  -0.1000
     21 C17       -14.7430    12.3626   -13.1001 C.ar       1  LIG1  -0.0700
     22 C18       -14.3855    13.6524   -13.4444 C.ar       1  LIG1  -0.1700
     23 C19       -13.3864    14.4068   -12.6054 C.3        1  LIG1   0.5100
     24 F1        -13.1956    15.6840   -13.1435 F          1  LIG1  -0.1700
     25 F2        -13.8671    14.5194   -11.2964 F          1  LIG1  -0.1800
     26 F3        -12.1691    13.7174   -12.5974 F          1  LIG1  -0.1700
     27 H2        -18.8825    17.8275   -15.6455 H          1  LIG1   0.1200
     28 H3        -19.7032    16.2996   -16.0460 H          1  LIG1   0.1300
     29 H4        -18.0640    16.2743   -15.3527 H          1  LIG1   0.1400
     30 H5        -19.5019    18.4408   -17.7347 H          1  LIG1   0.1300
     31 H6        -18.5344    17.9288   -19.1385 H          1  LIG1   0.1300
     32 H7        -19.7931    15.7943   -19.2275 H          1  LIG1   0.1000
     33 H8        -20.7605    16.3061   -17.8238 H          1  LIG1   0.1000
     34 H9        -22.3971    18.0907   -18.0270 H          1  LIG1   0.1200
     35 H10       -23.9280    19.3055   -19.5249 H          1  LIG1   0.1300
     36 H11       -23.5398    19.2919   -21.9564 H          1  LIG1   0.1300
     37 H12       -21.6201    18.0642   -22.8899 H          1  LIG1   0.1300
     38 H13       -20.0866    16.8534   -21.3915 H          1  LIG1   0.1200
     39 H14       -16.2927    17.2856   -18.2112 H          1  LIG1   0.1600
     40 H15       -17.0360    18.6270   -17.3074 H          1  LIG1   0.1600
     41 H16       -15.1880    15.5680   -16.9536 H          1  LIG1   0.4100
     42 H17       -13.4931    15.7052   -15.1210 H          1  LIG1   0.1000
     43 H18       -14.8123    16.3360   -14.1060 H          1  LIG1   0.1000
     44 H19       -16.3054    14.0301   -16.1920 H          1  LIG1   0.1400
     45 H20       -16.9371    11.7292   -15.5827 H          1  LIG1   0.1400
     46 H21       -15.9370    10.6616   -13.6022 H          1  LIG1   0.1400
     47 H22       -14.3045    11.8943   -12.2313 H          1  LIG1   0.1500
@<TRIPOS>BOND
     1    1    2 1
     2    1   27 1
     3    1   28 1
     4    1   29 1
     5    2    3 1
     6    2    4 1
     7    2   12 1
     8    4    5 1
     9    4   30 1
    10    4   31 1
    11    5    6 1
    12    5   32 1
    13    5   33 1
    14    6   11 ar
    15    6    7 ar
    16    7    8 ar
    17    7   34 1
    18    8    9 ar
    19    8   35 1
    20    9   10 ar
    21    9   36 1
    22   10   11 ar
    23   10   37 1
    24   11   38 1
    25   12   13 1
    26   12   39 1
    27   12   40 1
    28   13   14 2
    29   13   15 am
    30   15   16 1
    31   15   41 1
    32   16   17 1
    33   16   42 1
    34   16   43 1
    35   17   22 ar
    36   17   18 ar
    37   18   19 ar
    38   18   44 1
    39   19   20 ar
    40   19   45 1
    41   20   21 ar
    42   20   46 1
    43   21   22 ar
    44   21   47 1
    45   22   23 1
    46   23   24 1
    47   23   25 1
    48   23   26 1
##########                 Name:     ZINC000564047596
##########          Protonation:                 none
##########               SMILES:   COC1=C2C=C(C(=O)N3CCN(C4=[NH+]C=CN4)CC3)NC2=C(F)C=C1
##########            Long Name:   NO_LONG_NAME
##########          FlexRecCode: 1
##########               Number:                 1255
##########   Ligand Source File: /nfs/db/export/3D/EE/ADMO/EEADMO.xaei.db2.gz
##########                 Rank:                    1
##########               Setnum:                   38
##########             Matchnum:                    1
##########                Cloud:                    1
##########        Electrostatic:           -40.906860
##########                 Gist:             0.000000
##########        Van der Waals:           -33.888279
##########  Ligand Polar Desolv:            14.832798
########## Ligand Apolar Desolv:            -3.967760
##########      Internal Energy:             0.000000
##########      Receptor Energy:             0.000000
########## Receptor Desolvation:             0.000000
########## Receptor Hydrophobic:             0.000000
##########         Total Energy:           -63.930099
##########        Ligand Charge:             1.000000
##########            Arbitrary:    +999.9990
##########        Ligand Energy:             0.000000

@<TRIPOS>MOLECULE
 ZINC000564047596      none
   44    47     0     0     0



@<TRIPOS>ATOM
      1 C1        -16.9035    12.0814   -14.9985 C.3        1  LIG1   0.0200
      2 O1        -15.5124    12.1824   -15.3100 O.3        1  LIG1  -0.3000
      3 C2        -14.7075    12.7341   -14.3653 C.ar       1  LIG1   0.1900
      4 C3        -14.4765    14.1209   -14.3559 C.ar       1  LIG1  -0.1200
      5 C4        -14.9243    15.1844   -15.1734 C.2        1  LIG1  -0.0600
      6 C5        -14.3769    16.3335   -14.6960 C.2        1  LIG1  -0.0100
      7 C6        -14.5868    17.6749   -15.2574 C.2        1  LIG1   0.6000
      8 O2        -13.7136    18.5170   -15.1640 O.2        1  LIG1  -0.5000
      9 N1        -15.7467    17.9726   -15.8759 N.am       1  LIG1  -0.6200
     10 C7        -15.7885    18.9560   -16.9689 C.3        1  LIG1   0.1200
     11 C8        -16.5119    18.3254   -18.1636 C.3        1  LIG1   0.0200
     12 N2        -17.8223    17.8233   -17.7293 N.pl3      1  LIG1  -0.4500
     13 C9        -18.5707    17.3936   -18.8085 C.cat      1  LIG1   0.5100
     14 N3        -19.0396    16.1616   -18.9856 N.pl3      1  LIG1  -0.5200
     15 H1        -18.9156    15.4134   -18.3810 H          1  LIG1   0.4600
     16 C10       -19.7240    16.1325   -20.1614 C.2        1  LIG1   0.0200
     17 C11       -19.6630    17.3648   -20.6944 C.2        1  LIG1   0.0300
     18 N4        -18.9464    18.1445   -19.8398 N.pl3      1  LIG1  -0.5100
     19 C12       -17.6794    16.7565   -16.7295 C.3        1  LIG1   0.0400
     20 C13       -17.0030    17.3183   -15.4801 C.3        1  LIG1   0.0900
     21 N5        -13.5918    16.0378   -13.5969 N.pl3      1  LIG1  -0.5800
     22 C14       -13.6401    14.6810   -13.3716 C.ar       1  LIG1   0.1200
     23 C15       -13.0511    13.8535   -12.4180 C.ar       1  LIG1   0.0400
     24 F1        -12.2475    14.3820   -11.4693 F          1  LIG1  -0.1400
     25 C16       -13.2884    12.4952   -12.4416 C.ar       1  LIG1  -0.0600
     26 C17       -14.1164    11.9373   -13.4059 C.ar       1  LIG1  -0.2200
     27 H2        -17.4310    11.6243   -15.8356 H          1  LIG1   0.0600
     28 H3        -17.0326    11.4661   -14.1081 H          1  LIG1   0.1100
     29 H4        -17.3077    13.0767   -14.8142 H          1  LIG1   0.0600
     30 H5        -15.5831    15.0989   -16.0250 H          1  LIG1   0.1700
     31 H6        -16.3283    19.8446   -16.6415 H          1  LIG1   0.1000
     32 H7        -14.7728    19.2267   -17.2571 H          1  LIG1   0.1200
     33 H8        -16.6497    19.0754   -18.9425 H          1  LIG1   0.1100
     34 H9        -15.9173    17.4997   -18.5543 H          1  LIG1   0.0800
     35 H10       -20.2242    15.2758   -20.5883 H          1  LIG1   0.2300
     36 H11       -20.1053    17.6796   -21.6281 H          1  LIG1   0.2300
     37 H12       -18.7402    19.0841   -19.9643 H          1  LIG1   0.4600
     38 H13       -18.6640    16.3686   -16.4683 H          1  LIG1   0.1100
     39 H14       -17.0686    15.9527   -17.1401 H          1  LIG1   0.0800
     40 H15       -16.7916    16.5080   -14.7824 H          1  LIG1   0.1200
     41 H16       -17.6573    18.0508   -15.0074 H          1  LIG1   0.1000
     42 H17       -13.0897    16.6805   -13.0718 H          1  LIG1   0.4200
     43 H18       -12.8286    11.8595   -11.6994 H          1  LIG1   0.1500
     44 H19       -14.2924    10.8717   -13.4107 H          1  LIG1   0.1500
@<TRIPOS>BOND
     1    1    2 1
     2    1   27 1
     3    1   28 1
     4    1   29 1
     5    2    3 1
     6    3   26 ar
     7    3    4 ar
     8    4   22 ar
     9    4    5 1
    10    5    6 2
    11    5   30 1
    12    6    7 1
    13    6   21 1
    14    7    8 2
    15    7    9 am
    16    9   20 1
    17    9   10 1
    18   10   11 1
    19   10   31 1
    20   10   32 1
    21   11   12 1
    22   11   33 1
    23   11   34 1
    24   12   13 1
    25   12   19 1
    26   13   18 1
    27   13   14 1
    28   14   15 1
    29   14   16 1
    30   16   17 2
    31   16   35 1
    32   17   18 1
    33   17   36 1
    34   18   37 1
    35   19   20 1
    36   19   38 1
    37   19   39 1
    38   20   40 1
    39   20   41 1
    40   21   22 1
    41   21   42 1
    42   22   23 ar
    43   23   24 1
    44   23   25 ar
    45   25   26 ar
    46   25   43 1
    47   26   44 1
##########                 Name:     ZINC000245899191
##########          Protonation:                 none
##########               SMILES:   COC1=CC=C(NC(=O)C[NH2+][C@H]2[C@H](C)CCC[C@@H]2C)C([N+](=O)[O-])=C1
##########            Long Name:   NO_LONG_NAME
##########          FlexRecCode: 1
##########               Number:                  341
##########   Ligand Source File: /nfs/db/export/3D/EF/ADRO/EFADRO.xcoo.db2.gz
##########                 Rank:                    1
##########               Setnum:                   19
##########             Matchnum:                    1
##########                Cloud:                    1
##########        Electrostatic:           -41.079075
##########                 Gist:             0.000000
##########        Van der Waals:           -35.364655
##########  Ligand Polar Desolv:            13.203140
########## Ligand Apolar Desolv:            -4.204415
##########      Internal Energy:             0.000000
##########      Receptor Energy:             0.000000
########## Receptor Desolvation:             0.000000
########## Receptor Hydrophobic:             0.000000
##########         Total Energy:           -67.445000
##########        Ligand Charge:             1.000000
##########            Arbitrary:    +999.9990
##########        Ligand Energy:             0.000000

@<TRIPOS>MOLECULE
 ZINC000245899191      none
   50    51     0     0     0



@<TRIPOS>ATOM
      1 C1        -12.5948    14.5994   -12.5753 C.3        1  LIG1   0.0200
      2 O1        -12.5565    15.9428   -13.0611 O.3        1  LIG1  -0.3000
      3 C2        -13.4895    16.2914   -13.9866 C.ar       1  LIG1   0.1400
      4 C3        -14.4249    15.3601   -14.4129 C.ar       1  LIG1  -0.1400
      5 C4        -15.3728    15.7136   -15.3531 C.ar       1  LIG1  -0.0900
      6 C5        -15.3893    17.0013   -15.8715 C.ar       1  LIG1   0.1600
      7 N1        -16.3510    17.3607   -16.8250 N.am       1  LIG1  -0.6400
      8 C6        -17.6619    17.2846   -16.5216 C.2        1  LIG1   0.5100
      9 O2        -18.0093    16.9050   -15.4232 O.2        1  LIG1  -0.5100
     10 C7        -18.6963    17.6712   -17.5471 C.3        1  LIG1  -0.0400
     11 N2        -19.0633    16.4911   -18.3413 N.4        1  LIG1  -0.4900
     12 H1        -18.2442    16.1320   -18.8084 H          1  LIG1   0.4300
     13 H2        -19.4419    15.7807   -17.7330 H          1  LIG1   0.4300
     14 C8        -20.0715    16.8679   -19.3411 C.3        1  LIG1   0.0300
     15 H3        -20.3438    15.9922   -19.9304 H          1  LIG1   0.1500
     16 C9        -21.3135    17.4124   -18.6328 C.3        1  LIG1  -0.1100
     17 H4        -21.0413    18.2879   -18.0436 H          1  LIG1   0.1000
     18 C10       -21.8879    16.3351   -17.7103 C.3        1  LIG1  -0.1800
     19 C11       -22.3636    17.8047   -19.6741 C.3        1  LIG1  -0.1100
     20 C12       -21.7893    18.8818   -20.5966 C.3        1  LIG1  -0.1300
     21 C13       -20.5472    18.3374   -21.3049 C.3        1  LIG1  -0.1100
     22 C14       -19.4972    17.9450   -20.2636 C.3        1  LIG1  -0.1100
     23 H5        -19.2249    18.8205   -19.6744 H          1  LIG1   0.1000
     24 C15       -18.2552    17.4005   -20.9720 C.3        1  LIG1  -0.1700
     25 C16       -14.4526    17.9332   -15.4444 C.ar       1  LIG1  -0.0300
     26 N3        -14.4694    19.3063   -15.9966 N.pl3      1  LIG1   0.0300
     27 O3        -15.3049    19.6191   -16.8258 O.2        1  LIG1  -0.1100
     28 O4        -13.6477    20.1236   -15.6219 O.2        1  LIG1  -0.1900
     29 C17       -13.5090    17.5802   -14.5002 C.ar       1  LIG1  -0.0700
     30 H6        -11.7991    14.4544   -11.8447 H          1  LIG1   0.1200
     31 H7        -13.5595    14.4107   -12.1043 H          1  LIG1   0.0600
     32 H8        -12.4550    13.9083   -13.4067 H          1  LIG1   0.0600
     33 H9        -14.4117    14.3583   -14.0097 H          1  LIG1   0.1600
     34 H10       -16.1008    14.9883   -15.6851 H          1  LIG1   0.1700
     35 H11       -16.0733    17.6642   -17.7034 H          1  LIG1   0.4300
     36 H12       -19.5811    18.0590   -17.0425 H          1  LIG1   0.1700
     37 H13       -18.2873    18.4385   -18.2044 H          1  LIG1   0.1700
     38 H14       -22.7727    16.7231   -17.2057 H          1  LIG1   0.0500
     39 H15       -22.1602    15.4596   -18.2996 H          1  LIG1   0.0900
     40 H16       -21.1397    16.0556   -16.9685 H          1  LIG1   0.0700
     41 H17       -22.6359    16.9291   -20.2633 H          1  LIG1   0.0800
     42 H18       -23.2485    18.1925   -19.1695 H          1  LIG1   0.0900
     43 H19       -22.5373    19.1613   -21.3384 H          1  LIG1   0.0800
     44 H20       -21.5170    19.7575   -20.0072 H          1  LIG1   0.0700
     45 H21       -20.8196    17.4617   -21.8942 H          1  LIG1   0.0800
     46 H22       -20.1381    19.1047   -21.9621 H          1  LIG1   0.0900
     47 H23       -17.8461    18.1678   -21.6291 H          1  LIG1   0.0900
     48 H24       -17.5070    17.1210   -20.2301 H          1  LIG1   0.0500
     49 H25       -18.5274    16.5250   -21.5612 H          1  LIG1   0.0800
     50 H26       -12.7803    18.3048   -14.1679 H          1  LIG1   0.1700
@<TRIPOS>BOND
     1    1    2 1
     2    1   30 1
     3    1   31 1
     4    1   32 1
     5    2    3 1
     6    3   29 ar
     7    3    4 ar
     8    4    5 ar
     9    4   33 1
    10    5    6 ar
    11    5   34 1
    12    6    7 1
    13    6   25 ar
    14    7    8 am
    15    7   35 1
    16    8    9 2
    17    8   10 1
    18   10   11 1
    19   10   36 1
    20   10   37 1
    21   11   12 1
    22   11   13 1
    23   11   14 1
    24   14   15 1
    25   14   22 1
    26   14   16 1
    27   16   17 1
    28   16   18 1
    29   16   19 1
    30   18   38 1
    31   18   39 1
    32   18   40 1
    33   19   20 1
    34   19   41 1
    35   19   42 1
    36   20   21 1
    37   20   43 1
    38   20   44 1
    39   21   22 1
    40   21   45 1
    41   21   46 1
    42   22   23 1
    43   22   24 1
    44   24   47 1
    45   24   48 1
    46   24   49 1
    47   25   26 1
    48   25   29 ar
    49   26   27 2
    50   26   28 2
    51   29   50 1
##########                 Name:     ZINC000655736376
##########          Protonation:                 none
##########               SMILES:   CCC(CC)[C@@H](O)C[NH2+]CC1=CN(C2=CC=C(C)C=C2)N=C1C
##########            Long Name:   NO_LONG_NAME
##########          FlexRecCode: 1
##########               Number:                13618
##########   Ligand Source File: /nfs/db/export/3D/DG/ADRO/DGADRO.xbvw.db2.gz
##########                 Rank:                    1
##########               Setnum:                  148
##########             Matchnum:                    1
##########                Cloud:                    1
##########        Electrostatic:           -42.627796
##########                 Gist:             0.000000
##########        Van der Waals:           -33.038971
##########  Ligand Polar Desolv:            15.217327
########## Ligand Apolar Desolv:            -5.028511
##########      Internal Energy:             0.000000
##########      Receptor Energy:             0.000000
########## Receptor Desolvation:             0.000000
########## Receptor Hydrophobic:             0.000000
##########         Total Energy:           -65.477951
##########        Ligand Charge:             1.000000
##########            Arbitrary:    +999.9990
##########        Ligand Energy:             0.000000

@<TRIPOS>MOLECULE
 ZINC000655736376      none
   53    54     0     0     0



@<TRIPOS>ATOM
      1 C1        -22.9843    16.0795   -19.9001 C.3        1  LIG1  -0.1600
      2 C2        -22.4731    17.5036   -20.1265 C.3        1  LIG1  -0.1300
      3 C3        -20.9594    17.4730   -20.3475 C.3        1  LIG1  -0.1200
      4 C4        -20.4482    18.8971   -20.5739 C.3        1  LIG1  -0.1200
      5 C5        -21.1314    19.4946   -21.8056 C.3        1  LIG1  -0.1600
      6 C6        -20.2761    16.8755   -19.1158 C.3        1  LIG1   0.0900
      7 H1        -20.7648    17.2449   -18.2142 H          1  LIG1   0.1200
      8 O1        -20.3741    15.4505   -19.1609 O.3        1  LIG1  -0.5500
      9 C7        -18.8021    17.2851   -19.1014 C.3        1  LIG1  -0.0500
     10 N1        -18.1460    16.7115   -17.9187 N.4        1  LIG1  -0.5100
     11 H2        -18.5982    17.0535   -17.0842 H          1  LIG1   0.4300
     12 H3        -18.2152    15.7054   -17.9506 H          1  LIG1   0.4300
     13 C8        -16.7307    17.1047   -17.9049 C.3        1  LIG1   0.0900
     14 C9        -16.0577    16.5163   -16.6917 C.2        1  LIG1  -0.3200
     15 C10       -16.1861    15.2441   -16.2487 C.2        1  LIG1   0.1100
     16 N2        -15.4242    15.1161   -15.1390 N.pl3      1  LIG1  -0.2900
     17 C11       -15.2757    13.9535   -14.3698 C.ar       1  LIG1   0.1200
     18 C12       -14.4618    13.9629   -13.2451 C.ar       1  LIG1  -0.1300
     19 C13       -14.3174    12.8159   -12.4893 C.ar       1  LIG1  -0.1000
     20 C14       -14.9822    11.6589   -12.8520 C.ar       1  LIG1  -0.0700
     21 C15       -14.8225    10.4092   -12.0251 C.3        1  LIG1  -0.1200
     22 C16       -15.7937    11.6466   -13.9716 C.ar       1  LIG1  -0.1000
     23 C17       -15.9469    12.7921   -14.7280 C.ar       1  LIG1  -0.1000
     24 N3        -14.8088    16.3506   -14.8945 N.2        1  LIG1  -0.2700
     25 C18       -15.1848    17.1871   -15.8281 C.2        1  LIG1   0.1000
     26 C19       -14.7578    18.6274   -15.9476 C.3        1  LIG1  -0.0900
     27 H4        -24.0627    16.1013   -19.7426 H          1  LIG1   0.0600
     28 H5        -22.7570    15.4687   -20.7739 H          1  LIG1   0.0600
     29 H6        -22.4976    15.6538   -19.0227 H          1  LIG1   0.0600
     30 H7        -22.9599    17.9293   -21.0039 H          1  LIG1   0.0700
     31 H8        -22.7003    18.1144   -19.2527 H          1  LIG1   0.0600
     32 H9        -20.7320    16.8622   -21.2212 H          1  LIG1   0.0900
     33 H10       -20.6756    19.5080   -19.7001 H          1  LIG1   0.0800
     34 H11       -19.3698    18.8755   -20.7313 H          1  LIG1   0.0700
     35 H12       -20.7673    20.5093   -21.9669 H          1  LIG1   0.0600
     36 H13       -20.9040    18.8838   -22.6793 H          1  LIG1   0.0500
     37 H14       -22.2098    19.5164   -21.6482 H          1  LIG1   0.0600
     38 H15       -19.9613    15.0039   -18.4091 H          1  LIG1   0.3900
     39 H16       -18.3135    16.9156   -20.0030 H          1  LIG1   0.1400
     40 H17       -18.7273    18.3720   -19.0670 H          1  LIG1   0.1400
     41 H18       -16.2421    16.7352   -18.8065 H          1  LIG1   0.1400
     42 H19       -16.6559    18.1915   -17.8706 H          1  LIG1   0.1400
     43 H20       -16.7895    14.4703   -16.7001 H          1  LIG1   0.1900
     44 H21       -13.9417    14.8660   -12.9618 H          1  LIG1   0.1300
     45 H22       -13.6844    12.8226   -11.6143 H          1  LIG1   0.1400
     46 H23       -15.4169     9.6064   -12.4614 H          1  LIG1   0.0800
     47 H24       -13.7728    10.1162   -12.0084 H          1  LIG1   0.0700
     48 H25       -15.1625    10.6011   -11.0074 H          1  LIG1   0.0700
     49 H26       -16.3117    10.7414   -14.2525 H          1  LIG1   0.1400
     50 H27       -16.5810    12.7819   -15.6021 H          1  LIG1   0.1400
     51 H28       -14.0743    18.8724   -15.1347 H          1  LIG1   0.0900
     52 H29       -14.2555    18.7795   -16.9030 H          1  LIG1   0.0800
     53 H30       -15.6349    19.2722   -15.8917 H          1  LIG1   0.0900
@<TRIPOS>BOND
     1    1    2 1
     2    1   27 1
     3    1   28 1
     4    1   29 1
     5    2    3 1
     6    2   30 1
     7    2   31 1
     8    3    4 1
     9    3    6 1
    10    3   32 1
    11    4    5 1
    12    4   33 1
    13    4   34 1
    14    5   35 1
    15    5   36 1
    16    5   37 1
    17    6    7 1
    18    6    8 1
    19    6    9 1
    20    8   38 1
    21    9   10 1
    22    9   39 1
    23    9   40 1
    24   10   11 1
    25   10   12 1
    26   10   13 1
    27   13   14 1
    28   13   41 1
    29   13   42 1
    30   14   25 1
    31   14   15 2
    32   15   16 1
    33   15   43 1
    34   16   17 1
    35   16   24 1
    36   17   23 ar
    37   17   18 ar
    38   18   19 ar
    39   18   44 1
    40   19   20 ar
    41   19   45 1
    42   20   21 1
    43   20   22 ar
    44   21   46 1
    45   21   47 1
    46   21   48 1
    47   22   23 ar
    48   22   49 1
    49   23   50 1
    50   24   25 2
    51   25   26 1
    52   26   51 1
    53   26   52 1
    54   26   53 1
##########                 Name:     ZINC000453018295
##########          Protonation:                 none
##########               SMILES:   O[C@H](CC1=CC=C2C=CC=CC2=C1)C[N@H+]1C[C@]2(CCCO2)[C@H]1C1CC1
##########            Long Name:   NO_LONG_NAME
##########          FlexRecCode: 1
##########               Number:                 1588
##########   Ligand Source File: /nfs/db/export/3D/EG/ADMO/EGADMO.xapb.db2.gz
##########                 Rank:                    1
##########               Setnum:                  320
##########             Matchnum:                    1
##########                Cloud:                    1
##########        Electrostatic:           -39.502396
##########                 Gist:             0.000000
##########        Van der Waals:           -33.904091
##########  Ligand Polar Desolv:            13.476927
########## Ligand Apolar Desolv:            -5.746627
##########      Internal Energy:             0.000000
##########      Receptor Energy:             0.000000
########## Receptor Desolvation:             0.000000
########## Receptor Hydrophobic:             0.000000
##########         Total Energy:           -65.676186
##########        Ligand Charge:             1.000000
##########            Arbitrary:    +999.9990
##########        Ligand Energy:             0.000000

@<TRIPOS>MOLECULE
 ZINC000453018295      none
   53    57     0     0     0



@<TRIPOS>ATOM
      1 O1        -17.6421    16.1354   -15.8868 O.3        1  LIG1  -0.5500
      2 C1        -16.7566    16.0683   -17.0064 C.3        1  LIG1   0.1000
      3 H1        -16.6976    15.0395   -17.3618 H          1  LIG1   0.1200
      4 C2        -15.3644    16.5428   -16.5846 C.3        1  LIG1  -0.1100
      5 C3        -14.8457    15.6586   -15.4799 C.ar       1  LIG1  -0.0900
      6 C4        -13.9740    16.1872   -14.5301 C.ar       1  LIG1  -0.1100
      7 C5        -13.4871    15.4158   -13.5197 C.ar       1  LIG1  -0.1000
      8 C6        -13.8671    14.0662   -13.4302 C.ar       1  LIG1  -0.0500
      9 C7        -13.3857    13.2388   -12.4012 C.ar       1  LIG1  -0.1100
     10 C8        -13.7762    11.9362   -12.3462 C.ar       1  LIG1  -0.1100
     11 C9        -14.6480    11.4075   -13.2965 C.ar       1  LIG1  -0.1100
     12 C10       -15.1344    12.1785   -14.3070 C.ar       1  LIG1  -0.1100
     13 C11       -14.7539    13.5285   -14.3966 C.ar       1  LIG1  -0.0500
     14 C12       -15.2400    14.3570   -15.4220 C.ar       1  LIG1  -0.1000
     15 C13       -17.2834    16.9659   -18.1277 C.3        1  LIG1  -0.0400
     16 N1        -18.6278    16.5077   -18.5351 N.4        1  LIG1  -0.4000
     17 H2        -18.6825    15.4822   -18.5576 H          1  LIG1   0.4200
     18 C14       -19.6905    17.1051   -17.7045 C.3        1  LIG1   0.0000
     19 C15       -20.5500    17.2455   -18.9783 C.3        1  LIG1   0.0800
     20 C16       -21.5693    16.1453   -19.2531 C.3        1  LIG1  -0.1400
     21 C17       -22.5076    16.8311   -20.2315 C.3        1  LIG1  -0.1600
     22 C18       -22.5714    18.2522   -19.7016 C.3        1  LIG1   0.0500
     23 O2        -21.2749    18.4926   -19.1377 O.3        1  LIG1  -0.3400
     24 C19       -19.1991    17.1449   -19.7556 C.3        1  LIG1   0.0600
     25 H3        -19.2953    16.3625   -20.5854 H          1  LIG1   0.1600
     26 C20       -18.5440    18.4097   -20.2718 C.3        1  LIG1  -0.1900
     27 C21       -17.4334    18.2558   -21.3128 C.3        1  LIG1  -0.1700
     28 C22       -18.8032    18.7951   -21.7296 C.3        1  LIG1  -0.1400
     29 H4        -18.5447    15.8486   -16.0816 H          1  LIG1   0.3800
     30 H5        -14.6889    16.4915   -17.4385 H          1  LIG1   0.0900
     31 H6        -15.4235    17.5716   -16.2291 H          1  LIG1   0.0900
     32 H7        -13.6799    17.2241   -14.5968 H          1  LIG1   0.1200
     33 H8        -12.8118    15.8390   -12.7907 H          1  LIG1   0.1300
     34 H9        -12.7094    13.6345   -11.6581 H          1  LIG1   0.1300
     35 H10       -13.4044    11.3025   -11.5546 H          1  LIG1   0.1300
     36 H11       -14.9417    10.3704   -13.2300 H          1  LIG1   0.1300
     37 H12       -15.8090    11.7551   -15.0364 H          1  LIG1   0.1300
     38 H13       -15.9200    13.9624   -16.1624 H          1  LIG1   0.1200
     39 H14       -17.3423    17.9946   -17.7723 H          1  LIG1   0.1500
     40 H15       -16.6079    16.9147   -18.9817 H          1  LIG1   0.1400
     41 H16       -20.1163    16.4151   -16.9752 H          1  LIG1   0.1600
     42 H17       -19.4159    18.0652   -17.2660 H          1  LIG1   0.1400
     43 H18       -21.0853    15.2721   -19.7024 H          1  LIG1   0.1000
     44 H19       -22.0863    15.8572   -18.3322 H          1  LIG1   0.1000
     45 H20       -22.1051    16.8054   -21.2611 H          1  LIG1   0.1000
     46 H21       -23.5069    16.3580   -20.2302 H          1  LIG1   0.0900
     47 H22       -22.7653    18.9631   -20.5087 H          1  LIG1   0.0800
     48 H23       -23.3384    18.3484   -18.9290 H          1  LIG1   0.1000
     49 H24       -18.4467    19.2181   -19.5471 H          1  LIG1   0.1300
     50 H25       -16.6049    18.9631   -21.2731 H          1  LIG1   0.1100
     51 H26       -17.1741    17.2447   -21.6263 H          1  LIG1   0.1100
     52 H27       -19.4451    18.1387   -22.3172 H          1  LIG1   0.1000
     53 H28       -18.8760    19.8572   -21.9640 H          1  LIG1   0.1100
@<TRIPOS>BOND
     1    1    2 1
     2    1   29 1
     3    2    3 1
     4    2    4 1
     5    2   15 1
     6    4    5 1
     7    4   30 1
     8    4   31 1
     9    5   14 ar
    10    5    6 ar
    11    6    7 ar
    12    6   32 1
    13    7    8 ar
    14    7   33 1
    15    8   13 ar
    16    8    9 ar
    17    9   10 ar
    18    9   34 1
    19   10   11 ar
    20   10   35 1
    21   11   12 ar
    22   11   36 1
    23   12   13 ar
    24   12   37 1
    25   13   14 ar
    26   14   38 1
    27   15   16 1
    28   15   39 1
    29   15   40 1
    30   16   17 1
    31   16   24 1
    32   16   18 1
    33   18   19 1
    34   18   41 1
    35   18   42 1
    36   19   23 1
    37   19   20 1
    38   19   24 1
    39   20   21 1
    40   20   43 1
    41   20   44 1
    42   21   22 1
    43   21   45 1
    44   21   46 1
    45   22   23 1
    46   22   47 1
    47   22   48 1
    48   24   25 1
    49   24   26 1
    50   26   28 1
    51   26   27 1
    52   26   49 1
    53   27   28 1
    54   27   50 1
    55   27   51 1
    56   28   52 1
    57   28   53 1
##########                 Name:     ZINC000631235817
##########          Protonation:                 none
##########               SMILES:   C[C@](CO)(CC1=CC=CC=C1F)[NH2+]CC1=CN2C=C(Cl)C=CC2=N1
##########            Long Name:   NO_LONG_NAME
##########          FlexRecCode: 1
##########               Number:                 8809
##########   Ligand Source File: /nfs/db/export/3D/EG/ADRO/EGADRO.xcee.db2.gz
##########                 Rank:                    1
##########               Setnum:                   84
##########             Matchnum:                    1
##########                Cloud:                    1
##########        Electrostatic:           -43.039619
##########                 Gist:             0.000000
##########        Van der Waals:           -34.106930
##########  Ligand Polar Desolv:            14.985897
########## Ligand Apolar Desolv:            -5.255133
##########      Internal Energy:             0.000000
##########      Receptor Energy:             0.000000
########## Receptor Desolvation:             0.000000
########## Receptor Hydrophobic:             0.000000
##########         Total Energy:           -67.415779
##########        Ligand Charge:             1.000000
##########            Arbitrary:    +999.9990
##########        Ligand Energy:             0.000000

@<TRIPOS>MOLECULE
 ZINC000631235817      none
   44    46     0     0     0



@<TRIPOS>ATOM
      1 C1        -19.2915    17.9953   -17.9108 C.3        1  LIG1  -0.1800
      2 C2        -18.0114    17.2504   -18.2951 C.3        1  LIG1   0.0700
      3 C3        -16.9212    18.2618   -18.6546 C.3        1  LIG1   0.0600
      4 O1        -16.3358    18.7772   -17.4571 O.3        1  LIG1  -0.5700
      5 C4        -18.2881    16.3488   -19.4999 C.3        1  LIG1  -0.0900
      6 C5        -19.1862    17.0702   -20.4713 C.ar       1  LIG1  -0.1400
      7 C6        -20.5588    16.9580   -20.3578 C.ar       1  LIG1  -0.0800
      8 C7        -21.3832    17.6196   -21.2491 C.ar       1  LIG1  -0.1200
      9 C8        -20.8355    18.3937   -22.2548 C.ar       1  LIG1  -0.0800
     10 C9        -19.4629    18.5072   -22.3706 C.ar       1  LIG1  -0.1500
     11 C10       -18.6366    17.8504   -21.4748 C.ar       1  LIG1   0.1100
     12 F1        -17.2947    17.9606   -21.5869 F          1  LIG1  -0.1300
     13 N1        -17.5637    16.4298   -17.1619 N.4        1  LIG1  -0.5000
     14 H1        -17.3813    17.0243   -16.3673 H          1  LIG1   0.4300
     15 H2        -18.2828    15.7628   -16.9248 H          1  LIG1   0.4300
     16 C11       -16.3347    15.7144   -17.5307 C.3        1  LIG1   0.0900
     17 C12       -15.8754    14.8726   -16.3682 C.2        1  LIG1  -0.0200
     18 C13       -16.2311    13.5902   -16.1345 C.2        1  LIG1  -0.0400
     19 N2        -15.5994    13.1986   -14.9858 N.pl3      1  LIG1  -0.3500
     20 C14       -15.5938    12.0240   -14.2895 C.2        1  LIG1   0.0600
     21 C15       -14.8672    11.8993   -13.1580 C.2        1  LIG1  -0.0400
     22 Cl1       -14.8743    10.3974   -12.2874 Cl         1  LIG1  -0.0100
     23 C16       -14.1050    12.9802   -12.6827 C.2        1  LIG1  -0.0800
     24 C17       -14.1019    14.1552   -13.3676 C.2        1  LIG1  -0.0700
     25 C18       -14.8663    14.2698   -14.5462 C.2        1  LIG1   0.2400
     26 N3        -15.0447    15.2677   -15.4006 N.2        1  LIG1  -0.4700
     27 H3        -20.0682    17.2747   -17.6547 H          1  LIG1   0.1100
     28 H4        -19.0944    18.6376   -17.0527 H          1  LIG1   0.0900
     29 H5        -19.6238    18.6042   -18.7517 H          1  LIG1   0.0900
     30 H6        -16.1532    17.7711   -19.2526 H          1  LIG1   0.0900
     31 H7        -17.3590    19.0802   -19.2262 H          1  LIG1   0.0700
     32 H8        -15.9263    18.1030   -16.8979 H          1  LIG1   0.4100
     33 H9        -17.3473    16.0998   -19.9909 H          1  LIG1   0.1100
     34 H10       -18.7761    15.4338   -19.1643 H          1  LIG1   0.1000
     35 H11       -20.9877    16.3529   -19.5728 H          1  LIG1   0.1400
     36 H12       -22.4559    17.5313   -21.1596 H          1  LIG1   0.1400
     37 H13       -21.4804    18.9099   -22.9505 H          1  LIG1   0.1400
     38 H14       -19.0353    19.1115   -23.1569 H          1  LIG1   0.1400
     39 H15       -16.5318    15.0722   -18.3890 H          1  LIG1   0.1500
     40 H16       -15.5580    16.4349   -17.7869 H          1  LIG1   0.1500
     41 H17       -16.8909    12.9873   -16.7409 H          1  LIG1   0.2000
     42 H18       -16.1760    11.1874   -14.6467 H          1  LIG1   0.1800
     43 H19       -13.5245    12.8783   -11.7776 H          1  LIG1   0.1600
     44 H20       -13.5202    14.9926   -13.0115 H          1  LIG1   0.1700
@<TRIPOS>BOND
     1    1    2 1
     2    1   27 1
     3    1   28 1
     4    1   29 1
     5    2    3 1
     6    2    5 1
     7    2   13 1
     8    3    4 1
     9    3   30 1
    10    3   31 1
    11    4   32 1
    12    5    6 1
    13    5   33 1
    14    5   34 1
    15    6   11 ar
    16    6    7 ar
    17    7    8 ar
    18    7   35 1
    19    8    9 ar
    20    8   36 1
    21    9   10 ar
    22    9   37 1
    23   10   11 ar
    24   10   38 1
    25   11   12 1
    26   13   14 1
    27   13   15 1
    28   13   16 1
    29   16   17 1
    30   16   39 1
    31   16   40 1
    32   17   26 1
    33   17   18 2
    34   18   19 1
    35   18   41 1
    36   19   25 1
    37   19   20 1
    38   20   21 2
    39   20   42 1
    40   21   22 1
    41   21   23 1
    42   23   24 2
    43   23   43 1
    44   24   25 1
    45   24   44 1
    46   25   26 2
##########                 Name:     ZINC000374410673
##########          Protonation:                 none
##########               SMILES:   C[C@H](C(=O)NC1=CC([N+](=O)[O-])=CC=C1Cl)[N@H+]1CC[C@H]([C@@H]2CCOC2)C1
##########            Long Name:   NO_LONG_NAME
##########          FlexRecCode: 1
##########               Number:                 1846
##########   Ligand Source File: /nfs/db/export/3D/FF/BDMO/FFBDMO.xbh.db2.gz
##########                 Rank:                    1
##########               Setnum:                  128
##########             Matchnum:                    1
##########                Cloud:                    1
##########        Electrostatic:           -47.795959
##########                 Gist:             0.000000
##########        Van der Waals:           -32.197193
##########  Ligand Polar Desolv:            18.289322
########## Ligand Apolar Desolv:            -5.194302
##########      Internal Energy:             0.000000
##########      Receptor Energy:             0.000000
########## Receptor Desolvation:             0.000000
########## Receptor Hydrophobic:             0.000000
##########         Total Energy:           -66.898132
##########        Ligand Charge:             1.000000
##########            Arbitrary:    +999.9990
##########        Ligand Energy:             0.000000

@<TRIPOS>MOLECULE
 ZINC000374410673      none
   48    50     0     0     0



@<TRIPOS>ATOM
      1 C1        -16.7547    14.9236   -19.4445 C.3        1  LIG1  -0.1800
      2 C2        -16.6563    16.0722   -18.4386 C.3        1  LIG1   0.0100
      3 H1        -16.1164    16.9048   -18.8894 H          1  LIG1   0.1700
      4 C3        -15.9203    15.6025   -17.2102 C.2        1  LIG1   0.5100
      5 O1        -14.8909    16.1489   -16.8741 O.2        1  LIG1  -0.5000
      6 N1        -16.4061    14.5756   -16.4850 N.am       1  LIG1  -0.6400
      7 C4        -15.7225    14.1394   -15.3441 C.ar       1  LIG1   0.1400
      8 C5        -14.9755    15.0379   -14.5947 C.ar       1  LIG1  -0.0500
      9 C6        -14.3022    14.6045   -13.4688 C.ar       1  LIG1  -0.0200
     10 N2        -13.5060    15.5624   -12.6693 N.pl3      1  LIG1   0.0200
     11 O2        -13.4447    16.7319   -13.0041 O.2        1  LIG1  -0.1500
     12 O3        -12.9121    15.1812   -11.6765 O.2        1  LIG1  -0.1300
     13 C7        -14.3715    13.2773   -13.0877 C.ar       1  LIG1  -0.0400
     14 C8        -15.1146    12.3788   -13.8315 C.ar       1  LIG1  -0.0800
     15 C9        -15.7947    12.8067   -14.9558 C.ar       1  LIG1  -0.0100
     16 Cl1       -16.7274    11.6787   -15.8893 Cl         1  LIG1  -0.0200
     17 N3        -18.0070    16.5108   -18.0624 N.4        1  LIG1  -0.3800
     18 H2        -18.5169    15.7476   -17.6435 H          1  LIG1   0.4300
     19 C10       -17.9295    17.6547   -17.1181 C.3        1  LIG1  -0.0100
     20 C11       -19.3147    18.3325   -17.2680 C.3        1  LIG1  -0.1400
     21 C12       -19.6077    18.1898   -18.7792 C.3        1  LIG1  -0.1000
     22 H3        -19.3330    19.1038   -19.3057 H          1  LIG1   0.1200
     23 C13       -21.0869    17.8716   -19.0057 C.3        1  LIG1  -0.1200
     24 H4        -21.7133    18.6683   -18.6047 H          1  LIG1   0.0900
     25 C14       -21.4548    16.5148   -18.3573 C.3        1  LIG1  -0.1600
     26 C15       -22.3925    15.8899   -19.4214 C.3        1  LIG1   0.0400
     27 O4        -21.8028    16.3017   -20.6733 O.3        1  LIG1  -0.3700
     28 C16       -21.3708    17.6657   -20.5062 C.3        1  LIG1   0.0500
     29 C17       -18.7288    17.0152   -19.2507 C.3        1  LIG1  -0.0100
     30 H5        -17.2947    14.0910   -18.9937 H          1  LIG1   0.1100
     31 H6        -17.2869    15.2633   -20.3329 H          1  LIG1   0.0900
     32 H7        -15.7525    14.5982   -19.7235 H          1  LIG1   0.1000
     33 H8        -17.2294    14.1387   -16.7538 H          1  LIG1   0.4300
     34 H9        -14.9204    16.0748   -14.8917 H          1  LIG1   0.1800
     35 H10       -13.8438    12.9414   -12.2073 H          1  LIG1   0.1700
     36 H11       -15.1667    11.3428   -13.5312 H          1  LIG1   0.1700
     37 H12       -17.7824    17.3016   -16.0974 H          1  LIG1   0.1500
     38 H13       -17.1326    18.3396   -17.4079 H          1  LIG1   0.1300
     39 H14       -20.0665    17.8082   -16.6781 H          1  LIG1   0.1000
     40 H15       -19.2628    19.3832   -16.9826 H          1  LIG1   0.1200
     41 H16       -20.5668    15.8996   -18.2119 H          1  LIG1   0.0800
     42 H17       -21.9811    16.6643   -17.4145 H          1  LIG1   0.0900
     43 H18       -22.3970    14.8030   -19.3383 H          1  LIG1   0.1000
     44 H19       -23.4027    16.2874   -19.3237 H          1  LIG1   0.0700
     45 H20       -22.1565    18.3463   -20.8345 H          1  LIG1   0.0700
     46 H21       -20.4622    17.8399   -21.0825 H          1  LIG1   0.0900
     47 H22       -18.0152    17.3620   -19.9981 H          1  LIG1   0.1400
     48 H23       -19.3552    16.2272   -19.6689 H          1  LIG1   0.1400
@<TRIPOS>BOND
     1    1    2 1
     2    1   30 1
     3    1   31 1
     4    1   32 1
     5    2    3 1
     6    2    4 1
     7    2   17 1
     8    4    5 2
     9    4    6 am
    10    6    7 1
    11    6   33 1
    12    7   15 ar
    13    7    8 ar
    14    8    9 ar
    15    8   34 1
    16    9   10 1
    17    9   13 ar
    18   10   11 2
    19   10   12 2
    20   13   14 ar
    21   13   35 1
    22   14   15 ar
    23   14   36 1
    24   15   16 1
    25   17   18 1
    26   17   29 1
    27   17   19 1
    28   19   20 1
    29   19   37 1
    30   19   38 1
    31   20   21 1
    32   20   39 1
    33   20   40 1
    34   21   22 1
    35   21   23 1
    36   21   29 1
    37   23   24 1
    38   23   28 1
    39   23   25 1
    40   25   26 1
    41   25   41 1
    42   25   42 1
    43   26   27 1
    44   26   43 1
    45   26   44 1
    46   27   28 1
    47   28   45 1
    48   28   46 1
    49   29   47 1
    50   29   48 1
##########                 Name:     ZINC000304720724
##########          Protonation:                 none
##########               SMILES:   C[N@H+](CCO)CC1=CN(C2=CC=CC=C2)N=C1C1=CC=CS1
##########            Long Name:   NO_LONG_NAME
##########          FlexRecCode: 1
##########               Number:                 5306
##########   Ligand Source File: /nfs/db/export/3D/DG/ADRO/DGADRO.xabj.db2.gz
##########                 Rank:                    1
##########               Setnum:                  137
##########             Matchnum:                    1
##########                Cloud:                    1
##########        Electrostatic:           -44.225189
##########                 Gist:             0.000000
##########        Van der Waals:           -32.577068
##########  Ligand Polar Desolv:            13.367815
########## Ligand Apolar Desolv:            -4.322884
##########      Internal Energy:             0.000000
##########      Receptor Energy:             0.000000
########## Receptor Desolvation:             0.000000
########## Receptor Hydrophobic:             0.000000
##########         Total Energy:           -67.757332
##########        Ligand Charge:             1.000000
##########            Arbitrary:    +999.9990
##########        Ligand Energy:             0.000000

@<TRIPOS>MOLECULE
 ZINC000304720724      none
   42    44     0     0     0



@<TRIPOS>ATOM
      1 C1        -17.0202    16.2021   -18.8084 C.3        1  LIG1  -0.0500
      2 N1        -18.0670    16.7496   -17.9353 N.4        1  LIG1  -0.3900
      3 H1        -18.5391    15.9940   -17.4617 H          1  LIG1   0.4300
      4 C2        -19.0355    17.5016   -18.7442 C.3        1  LIG1  -0.0100
      5 C3        -20.0085    16.5273   -19.4111 C.3        1  LIG1   0.0500
      6 O1        -20.7021    15.7842   -18.4066 O.3        1  LIG1  -0.5800
      7 C4        -17.4580    17.6451   -16.9428 C.3        1  LIG1   0.0800
      8 C5        -16.4644    16.8736   -16.1129 C.2        1  LIG1  -0.3000
      9 C6        -16.6559    15.6476   -15.5802 C.2        1  LIG1   0.1100
     10 N2        -15.5270    15.3039   -14.9064 N.pl3      1  LIG1  -0.2900
     11 C7        -15.3164    14.1067   -14.2104 C.ar       1  LIG1   0.1300
     12 C8        -14.4829    14.0848   -13.0999 C.ar       1  LIG1  -0.1300
     13 C9        -14.2777    12.9029   -12.4154 C.ar       1  LIG1  -0.0900
     14 C10       -14.9010    11.7420   -12.8351 C.ar       1  LIG1  -0.1100
     15 C11       -15.7315    11.7605   -13.9407 C.ar       1  LIG1  -0.0900
     16 C12       -15.9453    12.9404   -14.6259 C.ar       1  LIG1  -0.1100
     17 N3        -14.6104    16.3560   -15.0298 N.2        1  LIG1  -0.2500
     18 C13       -15.1673    17.3015   -15.7601 C.2        1  LIG1   0.1700
     19 C14       -14.5451    18.5892   -16.1358 C.2        1  LIG1  -0.1700
     20 C15       -13.6222    19.2492   -15.4083 C.2        1  LIG1  -0.0700
     21 C16       -13.1883    20.4346   -15.9659 C.2        1  LIG1  -0.1400
     22 C17       -13.7474    20.7466   -17.1382 C.2        1  LIG1  -0.1800
     23 S1        -14.8891    19.4930   -17.6048 S.3        1  LIG1   0.1200
     24 H2        -16.5101    17.0182   -19.3200 H          1  LIG1   0.1200
     25 H3        -16.3017    15.6440   -18.2082 H          1  LIG1   0.1200
     26 H4        -17.4722    15.5377   -19.5449 H          1  LIG1   0.1200
     27 H5        -19.5901    18.1870   -18.1030 H          1  LIG1   0.1400
     28 H6        -18.5066    18.0685   -19.5103 H          1  LIG1   0.1400
     29 H7        -20.7272    17.0853   -20.0114 H          1  LIG1   0.1000
     30 H8        -19.4542    15.8421   -20.0522 H          1  LIG1   0.0700
     31 H9        -20.1237    15.2624   -17.8337 H          1  LIG1   0.4100
     32 H10       -16.9480    18.4613   -17.4544 H          1  LIG1   0.1400
     33 H11       -18.2348    18.0512   -16.2948 H          1  LIG1   0.1300
     34 H12       -17.5486    15.0468   -15.6728 H          1  LIG1   0.1900
     35 H13       -13.9954    14.9909   -12.7720 H          1  LIG1   0.1300
     36 H14       -13.6297    12.8852   -11.5517 H          1  LIG1   0.1400
     37 H15       -14.7383    10.8188   -12.2987 H          1  LIG1   0.1400
     38 H16       -16.2165    10.8521   -14.2662 H          1  LIG1   0.1400
     39 H17       -16.5943    12.9543   -15.4890 H          1  LIG1   0.1400
     40 H18       -13.2518    18.8796   -14.4634 H          1  LIG1   0.1500
     41 H19       -12.4513    21.0639   -15.4893 H          1  LIG1   0.1500
     42 H20       -13.5284    21.6333   -17.7146 H          1  LIG1   0.1800
@<TRIPOS>BOND
     1    1    2 1
     2    1   24 1
     3    1   25 1
     4    1   26 1
     5    2    3 1
     6    2    4 1
     7    2    7 1
     8    4    5 1
     9    4   27 1
    10    4   28 1
    11    5    6 1
    12    5   29 1
    13    5   30 1
    14    6   31 1
    15    7    8 1
    16    7   32 1
    17    7   33 1
    18    8   18 1
    19    8    9 2
    20    9   10 1
    21    9   34 1
    22   10   11 1
    23   10   17 1
    24   11   16 ar
    25   11   12 ar
    26   12   13 ar
    27   12   35 1
    28   13   14 ar
    29   13   36 1
    30   14   15 ar
    31   14   37 1
    32   15   16 ar
    33   15   38 1
    34   16   39 1
    35   17   18 2
    36   18   19 1
    37   19   23 1
    38   19   20 2
    39   20   21 1
    40   20   40 1
    41   21   22 2
    42   21   41 1
    43   22   23 1
    44   22   42 1
##########                 Name:     ZINC000271207637
##########          Protonation:                 none
##########               SMILES:   CN1CC[C@H]([N@@H+](C)CC2=CC(C3=CC=CC=C3)=CC=C2O)C1=O
##########            Long Name:   NO_LONG_NAME
##########          FlexRecCode: 1
##########               Number:                 8134
##########   Ligand Source File: /nfs/db/export/3D/DF/CDMO/DFCDMO.xab.db2.gz
##########                 Rank:                    1
##########               Setnum:                   27
##########             Matchnum:                    1
##########                Cloud:                    1
##########        Electrostatic:           -36.953247
##########                 Gist:             0.000000
##########        Van der Waals:           -34.548286
##########  Ligand Polar Desolv:            12.526074
########## Ligand Apolar Desolv:            -4.933287
##########      Internal Energy:             0.000000
##########      Receptor Energy:             0.000000
########## Receptor Desolvation:             0.000000
########## Receptor Hydrophobic:             0.000000
##########         Total Energy:           -63.908745
##########        Ligand Charge:             1.000000
##########            Arbitrary:    +999.9990
##########        Ligand Energy:             0.000000

@<TRIPOS>MOLECULE
 ZINC000271207637      none
   46    48     0     0     0



@<TRIPOS>ATOM
      1 C1        -22.8061    16.3778   -18.1218 C.3        1  LIG1   0.0800
      2 N1        -21.4656    16.6185   -18.6615 N.am       1  LIG1  -0.6000
      3 C2        -20.8571    15.8386   -19.7457 C.3        1  LIG1   0.0800
      4 C3        -19.6791    16.6960   -20.2590 C.3        1  LIG1  -0.1500
      5 C4        -19.3427    17.5479   -19.0133 C.3        1  LIG1  -0.0100
      6 H1        -19.0489    18.5553   -19.3081 H          1  LIG1   0.1700
      7 N2        -18.2766    16.9118   -18.2280 N.4        1  LIG1  -0.3700
      8 H2        -18.4241    15.9140   -18.2068 H          1  LIG1   0.4300
      9 C5        -16.9749    17.2016   -18.8443 C.3        1  LIG1  -0.0500
     10 C6        -18.2972    17.4390   -16.8569 C.3        1  LIG1   0.0400
     11 C7        -16.9626    17.1897   -16.2027 C.ar       1  LIG1  -0.1700
     12 C8        -16.7438    16.0184   -15.5088 C.ar       1  LIG1  -0.0700
     13 C9        -15.5090    15.7883   -14.9045 C.ar       1  LIG1  -0.0300
     14 C10       -15.2702    14.5289   -14.1577 C.ar       1  LIG1  -0.0700
     15 C11       -14.3891    14.5124   -13.0781 C.ar       1  LIG1  -0.1100
     16 C12       -14.1710    13.3380   -12.3866 C.ar       1  LIG1  -0.1200
     17 C13       -14.8248    12.1787   -12.7636 C.ar       1  LIG1  -0.1000
     18 C14       -15.7004    12.1894   -13.8345 C.ar       1  LIG1  -0.1100
     19 C15       -15.9303    13.3593   -14.5296 C.ar       1  LIG1  -0.1000
     20 C16       -14.4991    16.7434   -15.0035 C.ar       1  LIG1  -0.0700
     21 C17       -14.7238    17.9132   -15.6989 C.ar       1  LIG1  -0.1300
     22 C18       -15.9527    18.1372   -16.3041 C.ar       1  LIG1   0.1200
     23 O1        -16.1713    19.2905   -16.9885 O.3        1  LIG1  -0.5100
     24 C19       -20.6370    17.5854   -18.2310 C.2        1  LIG1   0.5000
     25 O2        -20.8878    18.3693   -17.3402 O.2        1  LIG1  -0.4900
     26 H3        -23.2632    15.5380   -18.6453 H          1  LIG1   0.0900
     27 H4        -22.7339    16.1475   -17.0588 H          1  LIG1   0.0800
     28 H5        -23.4187    17.2687   -18.2598 H          1  LIG1   0.0800
     29 H6        -20.4917    14.8848   -19.3652 H          1  LIG1   0.0900
     30 H7        -21.5805    15.6748   -20.5444 H          1  LIG1   0.1100
     31 H8        -18.8341    16.0683   -20.5420 H          1  LIG1   0.1200
     32 H9        -19.9898    17.3276   -21.0912 H          1  LIG1   0.1300
     33 H10       -16.1838    16.7297   -18.2616 H          1  LIG1   0.1300
     34 H11       -16.9596    16.8106   -19.8616 H          1  LIG1   0.1300
     35 H12       -16.8156    18.2797   -18.8669 H          1  LIG1   0.1300
     36 H13       -18.4947    18.5106   -16.8825 H          1  LIG1   0.1400
     37 H14       -19.0803    16.9388   -16.2871 H          1  LIG1   0.1400
     38 H15       -17.5285    15.2801   -15.4336 H          1  LIG1   0.1400
     39 H16       -13.8777    15.4167   -12.7833 H          1  LIG1   0.1200
     40 H17       -13.4885    13.3241   -11.5497 H          1  LIG1   0.1300
     41 H18       -14.6507    11.2619   -12.2201 H          1  LIG1   0.1300
     42 H19       -16.2080    11.2814   -14.1246 H          1  LIG1   0.1300
     43 H20       -16.6145    13.3666   -15.3652 H          1  LIG1   0.1300
     44 H21       -13.5415    16.5681   -14.5359 H          1  LIG1   0.1400
     45 H22       -13.9416    18.6537   -15.7759 H          1  LIG1   0.1400
     46 H23       -17.0578    19.3605   -17.3684 H          1  LIG1   0.4100
@<TRIPOS>BOND
     1    1    2 1
     2    1   26 1
     3    1   27 1
     4    1   28 1
     5    2   24 am
     6    2    3 1
     7    3    4 1
     8    3   29 1
     9    3   30 1
    10    4    5 1
    11    4   31 1
    12    4   32 1
    13    5    6 1
    14    5    7 1
    15    5   24 1
    16    7    8 1
    17    7    9 1
    18    7   10 1
    19    9   33 1
    20    9   34 1
    21    9   35 1
    22   10   11 1
    23   10   36 1
    24   10   37 1
    25   11   22 ar
    26   11   12 ar
    27   12   13 ar
    28   12   38 1
    29   13   14 1
    30   13   20 ar
    31   14   19 ar
    32   14   15 ar
    33   15   16 ar
    34   15   39 1
    35   16   17 ar
    36   16   40 1
    37   17   18 ar
    38   17   41 1
    39   18   19 ar
    40   18   42 1
    41   19   43 1
    42   20   21 ar
    43   20   44 1
    44   21   22 ar
    45   21   45 1
    46   22   23 1
    47   23   46 1
    48   24   25 2
##########                 Name:     ZINC000601953994
##########          Protonation:                 none
##########               SMILES:   N#CC1=CC=NC(SC[C@]2(O)CC[N@@H+](CC3=CC=CC=C3)C2)=C1
##########            Long Name:   NO_LONG_NAME
##########          FlexRecCode: 1
##########               Number:                 1534
##########   Ligand Source File: /nfs/db/export/3D/EF/EDMO/EFEDMO.xaj.db2.gz
##########                 Rank:                    1
##########               Setnum:                  592
##########             Matchnum:                    1
##########                Cloud:                    1
##########        Electrostatic:           -41.389290
##########                 Gist:             0.000000
##########        Van der Waals:           -35.749008
##########  Ligand Polar Desolv:            15.178689
########## Ligand Apolar Desolv:            -5.288346
##########      Internal Energy:             0.000000
##########      Receptor Energy:             0.000000
########## Receptor Desolvation:             0.000000
########## Receptor Hydrophobic:             0.000000
##########         Total Energy:           -67.247955
##########        Ligand Charge:             1.000000
##########            Arbitrary:    +999.9990
##########        Ligand Energy:             0.000000

@<TRIPOS>MOLECULE
 ZINC000601953994      none
   43    45     0     0     0



@<TRIPOS>ATOM
      1 N1        -15.5189    10.7853   -12.9532 N.1        1  LIG1  -0.3700
      2 C1        -15.0005    11.7773   -13.1473 C.1        1  LIG1   0.2400
      3 C2        -14.3468    13.0277   -13.3920 C.ar       1  LIG1   0.0500
      4 C3        -13.3038    13.4679   -12.5662 C.ar       1  LIG1  -0.1200
      5 C4        -12.6989    14.6778   -12.8346 C.ar       1  LIG1   0.1300
      6 N2        -13.0879    15.4213   -13.8525 N.ar       1  LIG1  -0.4800
      7 C5        -14.0689    15.0465   -14.6599 C.ar       1  LIG1   0.1200
      8 S1        -14.5388    16.0872   -16.0019 S.3        1  LIG1  -0.0500
      9 C6        -16.2801    16.4505   -15.6461 C.3        1  LIG1  -0.1400
     10 C7        -16.8449    17.3603   -16.7389 C.3        1  LIG1   0.1400
     11 O1        -15.8971    18.3749   -17.0772 O.3        1  LIG1  -0.5400
     12 C8        -18.1735    17.9983   -16.2725 C.3        1  LIG1  -0.1800
     13 C9        -19.0416    17.9683   -17.5555 C.3        1  LIG1   0.0000
     14 N3        -18.6696    16.6764   -18.1872 N.4        1  LIG1  -0.3900
     15 H1        -19.1586    15.9163   -17.7388 H          1  LIG1   0.4300
     16 C10       -18.9837    16.7053   -19.6220 C.3        1  LIG1   0.0500
     17 C11       -20.4608    16.9387   -19.8083 C.ar       1  LIG1  -0.1600
     18 C12       -21.3280    15.8640   -19.8705 C.ar       1  LIG1  -0.0900
     19 C13       -22.6829    16.0781   -20.0413 C.ar       1  LIG1  -0.1100
     20 C14       -23.1707    17.3670   -20.1496 C.ar       1  LIG1  -0.0800
     21 C15       -22.3037    18.4418   -20.0865 C.ar       1  LIG1  -0.1100
     22 C16       -20.9492    18.2278   -19.9113 C.ar       1  LIG1  -0.0900
     23 C17       -17.2114    16.5341   -17.9857 C.3        1  LIG1   0.0100
     24 C18       -14.7279    13.8381   -14.4632 C.ar       1  LIG1  -0.1000
     25 H2        -12.9780    12.8673   -11.7299 H          1  LIG1   0.1600
     26 H3        -11.8944    15.0221   -12.2015 H          1  LIG1   0.1800
     27 H4        -16.8472    15.5202   -15.6189 H          1  LIG1   0.1200
     28 H5        -16.3571    16.9512   -14.6809 H          1  LIG1   0.1100
     29 H6        -15.0555    18.0324   -17.4081 H          1  LIG1   0.4000
     30 H7        -18.6313    17.4023   -15.4829 H          1  LIG1   0.1100
     31 H8        -18.0129    19.0237   -15.9393 H          1  LIG1   0.1300
     32 H9        -20.1018    17.9819   -17.3031 H          1  LIG1   0.1400
     33 H10       -18.7900    18.8030   -18.2097 H          1  LIG1   0.1400
     34 H11       -18.4255    17.5103   -20.1000 H          1  LIG1   0.1400
     35 H12       -18.7066    15.7529   -20.0739 H          1  LIG1   0.1400
     36 H13       -20.9468    14.8570   -19.7859 H          1  LIG1   0.1300
     37 H14       -23.3603    15.2385   -20.0907 H          1  LIG1   0.1400
     38 H15       -24.2292    17.5343   -20.2838 H          1  LIG1   0.1400
     39 H16       -22.6848    19.4488   -20.1714 H          1  LIG1   0.1400
     40 H17       -20.2718    19.0675   -19.8620 H          1  LIG1   0.1300
     41 H18       -16.6772    16.9172   -18.8553 H          1  LIG1   0.1500
     42 H19       -16.9594    15.4862   -17.8240 H          1  LIG1   0.1500
     43 H20       -15.5273    13.5352   -15.1233 H          1  LIG1   0.1500
@<TRIPOS>BOND
     1    1    2 3
     2    2    3 1
     3    3   24 ar
     4    3    4 ar
     5    4    5 ar
     6    4   25 1
     7    5    6 ar
     8    5   26 1
     9    6    7 ar
    10    7    8 1
    11    7   24 ar
    12    8    9 1
    13    9   10 1
    14    9   27 1
    15    9   28 1
    16   10   23 1
    17   10   11 1
    18   10   12 1
    19   11   29 1
    20   12   13 1
    21   12   30 1
    22   12   31 1
    23   13   14 1
    24   13   32 1
    25   13   33 1
    26   14   15 1
    27   14   16 1
    28   14   23 1
    29   16   17 1
    30   16   34 1
    31   16   35 1
    32   17   22 ar
    33   17   18 ar
    34   18   19 ar
    35   18   36 1
    36   19   20 ar
    37   19   37 1
    38   20   21 ar
    39   20   38 1
    40   21   22 ar
    41   21   39 1
    42   22   40 1
    43   23   41 1
    44   23   42 1
    45   24   43 1
##########                 Name:     ZINC000656264298
##########          Protonation:                 none
##########               SMILES:   CC1=CC=C(NC(=O)C[NH2+][C@H]2CC[C@@H](C)SC2)C(Cl)=C1
##########            Long Name:   NO_LONG_NAME
##########          FlexRecCode: 1
##########               Number:                 2491
##########   Ligand Source File: /nfs/db/export/3D/DG/ADRO/DGADRO.xccw.db2.gz
##########                 Rank:                    1
##########               Setnum:                   24
##########             Matchnum:                    1
##########                Cloud:                    1
##########        Electrostatic:           -49.053726
##########                 Gist:             0.000000
##########        Van der Waals:           -25.925110
##########  Ligand Polar Desolv:            15.752638
########## Ligand Apolar Desolv:            -4.908145
##########      Internal Energy:             0.000000
##########      Receptor Energy:             0.000000
########## Receptor Desolvation:             0.000000
########## Receptor Hydrophobic:             0.000000
##########         Total Energy:           -64.134346
##########        Ligand Charge:             1.000000
##########            Arbitrary:    +999.9990
##########        Ligand Energy:             0.000000

@<TRIPOS>MOLECULE
 ZINC000656264298      none
   42    43     0     0     0



@<TRIPOS>ATOM
      1 C1        -13.2932    13.7137   -12.1195 C.3        1  LIG1  -0.1200
      2 C2        -14.1292    13.9914   -13.3421 C.ar       1  LIG1  -0.0700
      3 C3        -14.3064    15.2922   -13.7755 C.ar       1  LIG1  -0.1000
      4 C4        -15.0723    15.5508   -14.8960 C.ar       1  LIG1  -0.1100
      5 C5        -15.6641    14.5028   -15.5876 C.ar       1  LIG1   0.1200
      6 N1        -16.4402    14.7616   -16.7234 N.am       1  LIG1  -0.6400
      7 C6        -16.1651    15.8292   -17.4987 C.2        1  LIG1   0.5000
      8 O1        -15.2450    16.5657   -17.2121 O.2        1  LIG1  -0.5100
      9 C7        -17.0005    16.1079   -18.7214 C.3        1  LIG1  -0.0300
     10 N2        -18.3999    16.3099   -18.3228 N.4        1  LIG1  -0.4900
     11 H1        -18.7421    15.4791   -17.8637 H          1  LIG1   0.4400
     12 H2        -18.4594    17.0929   -17.6894 H          1  LIG1   0.4300
     13 C8        -19.2144    16.5813   -19.5148 C.3        1  LIG1   0.0300
     14 H3        -18.8870    15.9374   -20.3311 H          1  LIG1   0.1500
     15 C9        -20.6805    16.2971   -19.2020 C.3        1  LIG1  -0.1600
     16 C10       -21.5170    16.3092   -20.4781 C.3        1  LIG1  -0.1100
     17 C11       -21.6368    17.7395   -21.0107 C.3        1  LIG1  -0.0700
     18 H4        -22.2767    17.7482   -21.8931 H          1  LIG1   0.1300
     19 C12       -22.2407    18.6397   -19.9310 C.3        1  LIG1  -0.1600
     20 S1        -19.9803    18.3417   -21.4536 S.3        1  LIG1  -0.1700
     21 C13       -19.0441    18.0469   -19.9238 C.3        1  LIG1  -0.1400
     22 C14       -15.4840    13.1959   -15.1500 C.ar       1  LIG1  -0.0500
     23 Cl1       -16.2213    11.8814   -16.0115 Cl         1  LIG1  -0.0500
     24 C15       -14.7128    12.9440   -14.0314 C.ar       1  LIG1  -0.0900
     25 H5        -12.9194    14.6537   -11.7137 H          1  LIG1   0.0800
     26 H6        -13.9030    13.2107   -11.3689 H          1  LIG1   0.0800
     27 H7        -12.4523    13.0755   -12.3915 H          1  LIG1   0.0800
     28 H8        -13.8459    16.1074   -13.2372 H          1  LIG1   0.1400
     29 H9        -15.2106    16.5674   -15.2333 H          1  LIG1   0.1500
     30 H10       -17.1759    14.1724   -16.9526 H          1  LIG1   0.4200
     31 H11       -16.6309    17.0054   -19.2174 H          1  LIG1   0.1600
     32 H12       -16.9362    15.2620   -19.4059 H          1  LIG1   0.1700
     33 H13       -20.7633    15.3191   -18.7279 H          1  LIG1   0.1000
     34 H14       -21.0562    17.0592   -18.5193 H          1  LIG1   0.1000
     35 H15       -21.0388    15.6819   -21.2303 H          1  LIG1   0.0900
     36 H16       -22.5116    15.9188   -20.2625 H          1  LIG1   0.1000
     37 H17       -22.3252    19.6575   -20.3120 H          1  LIG1   0.0600
     38 H18       -23.2298    18.2696   -19.6606 H          1  LIG1   0.0800
     39 H19       -21.5975    18.6335   -19.0510 H          1  LIG1   0.0800
     40 H20       -19.4225    18.6951   -19.1334 H          1  LIG1   0.1100
     41 H21       -17.9882    18.2557   -20.0958 H          1  LIG1   0.1300
     42 H22       -14.5722    11.9289   -13.6904 H          1  LIG1   0.1500
@<TRIPOS>BOND
     1    1    2 1
     2    1   25 1
     3    1   26 1
     4    1   27 1
     5    2   24 ar
     6    2    3 ar
     7    3    4 ar
     8    3   28 1
     9    4    5 ar
    10    4   29 1
    11    5    6 1
    12    5   22 ar
    13    6    7 am
    14    6   30 1
    15    7    8 2
    16    7    9 1
    17    9   10 1
    18    9   31 1
    19    9   32 1
    20   10   11 1
    21   10   12 1
    22   10   13 1
    23   13   14 1
    24   13   21 1
    25   13   15 1
    26   15   16 1
    27   15   33 1
    28   15   34 1
    29   16   17 1
    30   16   35 1
    31   16   36 1
    32   17   18 1
    33   17   19 1
    34   17   20 1
    35   19   37 1
    36   19   38 1
    37   19   39 1
    38   20   21 1
    39   21   40 1
    40   21   41 1
    41   22   23 1
    42   22   24 ar
    43   24   42 1
##########                 Name:     ZINC000649689957
##########          Protonation:                 none
##########               SMILES:   CCC[C@H](C)[C@H](CO)[NH2+]CC1=NOC(C2=CC=CC=C2)=C1
##########            Long Name:   NO_LONG_NAME
##########          FlexRecCode: 1
##########               Number:                 2856
##########   Ligand Source File: /nfs/db/export/3D/CG/ADRO/CGADRO.xbjt.db2.gz
##########                 Rank:                    1
##########               Setnum:                  465
##########             Matchnum:                    1
##########                Cloud:                    1
##########        Electrostatic:           -41.245556
##########                 Gist:             0.000000
##########        Van der Waals:           -30.606188
##########  Ligand Polar Desolv:            11.401655
########## Ligand Apolar Desolv:            -4.295143
##########      Internal Energy:             0.000000
##########      Receptor Energy:             0.000000
########## Receptor Desolvation:             0.000000
########## Receptor Hydrophobic:             0.000000
##########         Total Energy:           -64.745232
##########        Ligand Charge:             1.000000
##########            Arbitrary:    +999.9990
##########        Ligand Energy:             0.000000

@<TRIPOS>MOLECULE
 ZINC000649689957      none
   46    47     0     0     0



@<TRIPOS>ATOM
      1 C1        -23.7021    17.7718   -20.6350 C.3        1  LIG1  -0.1600
      2 C2        -22.7643    16.9020   -19.7955 C.3        1  LIG1  -0.1300
      3 C3        -21.4397    17.6377   -19.5833 C.3        1  LIG1  -0.1100
      4 C4        -20.5020    16.7678   -18.7438 C.3        1  LIG1  -0.1100
      5 H1        -20.5915    15.7282   -19.0588 H          1  LIG1   0.1100
      6 C5        -20.8815    16.8875   -17.2664 C.3        1  LIG1  -0.1700
      7 C6        -19.0591    17.2374   -18.9393 C.3        1  LIG1   0.0300
      8 H2        -19.0327    18.3266   -18.9721 H          1  LIG1   0.1500
      9 C7        -18.5131    16.6743   -20.2531 C.3        1  LIG1   0.0500
     10 O1        -18.1106    15.3171   -20.0589 O.3        1  LIG1  -0.5700
     11 N1        -18.2333    16.7610   -17.8217 N.4        1  LIG1  -0.5100
     12 H3        -18.5932    17.1324   -16.9553 H          1  LIG1   0.4300
     13 H4        -18.2577    15.7527   -17.7913 H          1  LIG1   0.4400
     14 C8        -16.8478    17.2118   -18.0096 C.3        1  LIG1   0.0900
     15 C9        -16.0007    16.7231   -16.8630 C.2        1  LIG1  -0.0500
     16 N2        -15.1254    17.4156   -16.1911 N.2        1  LIG1  -0.3300
     17 O2        -14.5975    16.7575   -15.3253 O.3        1  LIG1   0.1300
     18 C10       -15.0693    15.4981   -15.3080 C.2        1  LIG1   0.0600
     19 C11       -14.6635    14.4099   -14.3931 C.ar       1  LIG1  -0.0600
     20 C12       -15.2455    13.1465   -14.5051 C.ar       1  LIG1  -0.0800
     21 C13       -14.8624    12.1354   -13.6482 C.ar       1  LIG1  -0.1200
     22 C14       -13.9033    12.3720   -12.6794 C.ar       1  LIG1  -0.0900
     23 C15       -13.3224    13.6222   -12.5631 C.ar       1  LIG1  -0.1200
     24 C16       -13.6924    14.6403   -13.4174 C.ar       1  LIG1  -0.0800
     25 C17       -16.0050    15.4286   -16.3040 C.2        1  LIG1  -0.2200
     26 H5        -24.6458    17.2477   -20.7862 H          1  LIG1   0.0600
     27 H6        -23.8876    18.7120   -20.1158 H          1  LIG1   0.0600
     28 H7        -23.2407    17.9755   -21.6014 H          1  LIG1   0.0600
     29 H8        -23.2256    16.6983   -18.8291 H          1  LIG1   0.0700
     30 H9        -22.5787    15.9618   -20.3148 H          1  LIG1   0.0700
     31 H10       -20.9784    17.8414   -20.5496 H          1  LIG1   0.0800
     32 H11       -21.6254    18.5778   -19.0639 H          1  LIG1   0.0700
     33 H12       -20.2133    16.2678   -16.6684 H          1  LIG1   0.0900
     34 H13       -20.7918    17.9272   -16.9513 H          1  LIG1   0.0500
     35 H14       -21.9094    16.5530   -17.1269 H          1  LIG1   0.0700
     36 H15       -19.2893    16.7173   -21.0172 H          1  LIG1   0.1000
     37 H16       -17.6551    17.2656   -20.5730 H          1  LIG1   0.0700
     38 H17       -18.8253    14.7318   -19.7728 H          1  LIG1   0.4100
     39 H18       -16.4589    16.8105   -18.9455 H          1  LIG1   0.1500
     40 H19       -16.8214    18.3010   -18.0425 H          1  LIG1   0.1500
     41 H20       -15.9946    12.9607   -15.2607 H          1  LIG1   0.1300
     42 H21       -15.3123    11.1573   -13.7335 H          1  LIG1   0.1400
     43 H22       -13.6072    11.5771   -12.0108 H          1  LIG1   0.1400
     44 H23       -12.5743    13.8004   -11.8047 H          1  LIG1   0.1400
     45 H24       -13.2382    15.6158   -13.3256 H          1  LIG1   0.1300
     46 H25       -16.6025    14.5783   -16.5980 H          1  LIG1   0.1900
@<TRIPOS>BOND
     1    1    2 1
     2    1   26 1
     3    1   27 1
     4    1   28 1
     5    2    3 1
     6    2   29 1
     7    2   30 1
     8    3    4 1
     9    3   31 1
    10    3   32 1
    11    4    5 1
    12    4    6 1
    13    4    7 1
    14    6   33 1
    15    6   34 1
    16    6   35 1
    17    7    8 1
    18    7    9 1
    19    7   11 1
    20    9   10 1
    21    9   36 1
    22    9   37 1
    23   10   38 1
    24   11   12 1
    25   11   13 1
    26   11   14 1
    27   14   15 1
    28   14   39 1
    29   14   40 1
    30   15   25 1
    31   15   16 2
    32   16   17 1
    33   17   18 1
    34   18   19 1
    35   18   25 2
    36   19   24 ar
    37   19   20 ar
    38   20   21 ar
    39   20   41 1
    40   21   22 ar
    41   21   42 1
    42   22   23 ar
    43   22   43 1
    44   23   24 ar
    45   23   44 1
    46   24   45 1
    47   25   46 1
##########                 Name:     ZINC000513544959
##########          Protonation:                 none
##########               SMILES:   CC1=CC=C(CNCC2(O)CC[NH+](C(C)C)CC2)C(Br)=C1
##########            Long Name:   NO_LONG_NAME
##########          FlexRecCode: 1
##########               Number:                14827
##########   Ligand Source File: /nfs/db/export/3D/FG/ADMO/FGADMO.xbkw.db2.gz
##########                 Rank:                    1
##########               Setnum:                  294
##########             Matchnum:                    1
##########                Cloud:                    1
##########        Electrostatic:           -39.090023
##########                 Gist:             0.000000
##########        Van der Waals:           -30.332626
##########  Ligand Polar Desolv:            10.112301
########## Ligand Apolar Desolv:            -4.614266
##########      Internal Energy:             0.000000
##########      Receptor Energy:             0.000000
########## Receptor Desolvation:             0.000000
########## Receptor Hydrophobic:             0.000000
##########         Total Energy:           -63.924618
##########        Ligand Charge:             1.000000
##########            Arbitrary:    +999.9990
##########        Ligand Energy:             0.000000

@<TRIPOS>MOLECULE
 ZINC000513544959      none
   49    50     0     0     0



@<TRIPOS>ATOM
      1 C1        -15.4726    10.6593   -12.5418 C.3        1  LIG1  -0.1200
      2 C2        -15.2155    12.0278   -13.1183 C.ar       1  LIG1  -0.0700
      3 C3        -15.8779    12.4313   -14.2623 C.ar       1  LIG1  -0.1100
      4 C4        -15.6425    13.6867   -14.7916 C.ar       1  LIG1  -0.1000
      5 C5        -14.7446    14.5387   -14.1769 C.ar       1  LIG1  -0.0800
      6 C6        -14.4884    15.9071   -14.7536 C.3        1  LIG1   0.1000
      7 N1        -15.3082    16.0922   -15.9585 N.3        1  LIG1  -0.6800
      8 C7        -15.4619    17.5180   -16.2769 C.3        1  LIG1   0.0300
      9 C8        -16.6774    17.7093   -17.1862 C.3        1  LIG1   0.1300
     10 O1        -16.8259    19.0955   -17.4999 O.3        1  LIG1  -0.5600
     11 C9        -16.4824    16.9086   -18.4770 C.3        1  LIG1  -0.1600
     12 C10       -17.7347    17.0403   -19.3464 C.3        1  LIG1  -0.0100
     13 N2        -18.8978    16.5205   -18.6176 N.4        1  LIG1  -0.3800
     14 H1        -18.7252    15.5633   -18.3495 H          1  LIG1   0.4200
     15 C11       -20.0829    16.5788   -19.4838 C.3        1  LIG1   0.0200
     16 C12       -21.1489    15.6171   -18.9549 C.3        1  LIG1  -0.1800
     17 C13       -20.6398    18.0039   -19.4908 C.3        1  LIG1  -0.1800
     18 C14       -19.1341    17.3289   -17.4153 C.3        1  LIG1  -0.0100
     19 C15       -17.9357    17.2083   -16.4715 C.3        1  LIG1  -0.1300
     20 C16       -14.0813    14.1352   -13.0318 C.ar       1  LIG1  -0.0600
     21 Br1       -12.8525    15.3005   -12.1903 Br         1  LIG1  -0.0400
     22 C17       -14.3214    12.8815   -12.4995 C.ar       1  LIG1  -0.1000
     23 H2        -16.2008    10.1353   -13.1608 H          1  LIG1   0.0800
     24 H3        -14.5411    10.0937   -12.5193 H          1  LIG1   0.0700
     25 H4        -15.8618    10.7590   -11.5286 H          1  LIG1   0.0700
     26 H5        -16.5794    11.7656   -14.7431 H          1  LIG1   0.1300
     27 H6        -16.1600    14.0014   -15.6857 H          1  LIG1   0.1300
     28 H7        -14.7491    16.6668   -14.0166 H          1  LIG1   0.0900
     29 H8        -13.4340    16.0003   -15.0138 H          1  LIG1   0.0500
     30 H9        -14.9203    15.5866   -16.7409 H          1  LIG1   0.3400
     31 H10       -15.6048    18.0826   -15.3556 H          1  LIG1   0.0900
     32 H11       -14.5671    17.8748   -16.7867 H          1  LIG1   0.0500
     33 H12       -17.5789    19.2904   -18.0745 H          1  LIG1   0.3900
     34 H13       -15.6202    17.2966   -19.0193 H          1  LIG1   0.1300
     35 H14       -16.3176    15.8592   -18.2328 H          1  LIG1   0.1000
     36 H15       -17.8985    18.0900   -19.5903 H          1  LIG1   0.1300
     37 H16       -17.5992    16.4715   -20.2664 H          1  LIG1   0.1300
     38 H17       -19.8058    16.2919   -20.4983 H          1  LIG1   0.1400
     39 H18       -22.0282    15.6604   -19.5975 H          1  LIG1   0.0800
     40 H19       -20.7520    14.6020   -18.9498 H          1  LIG1   0.1100
     41 H20       -21.4258    15.9040   -17.9405 H          1  LIG1   0.0800
     42 H21       -21.5191    18.0471   -20.1337 H          1  LIG1   0.0800
     43 H22       -20.9170    18.2905   -18.4763 H          1  LIG1   0.1000
     44 H23       -19.8804    18.6890   -19.8675 H          1  LIG1   0.0800
     45 H24       -19.2680    18.3723   -17.7002 H          1  LIG1   0.1400
     46 H25       -20.0316    16.9732   -16.9094 H          1  LIG1   0.1300
     47 H26       -17.8009    16.1650   -16.1858 H          1  LIG1   0.1000
     48 H27       -18.1122    17.8105   -15.5803 H          1  LIG1   0.1200
     49 H28       -13.8041    12.5662   -11.6054 H          1  LIG1   0.1300
@<TRIPOS>BOND
     1    1    2 1
     2    1   23 1
     3    1   24 1
     4    1   25 1
     5    2   22 ar
     6    2    3 ar
     7    3    4 ar
     8    3   26 1
     9    4    5 ar
    10    4   27 1
    11    5    6 1
    12    5   20 ar
    13    6    7 1
    14    6   28 1
    15    6   29 1
    16    7    8 1
    17    7   30 1
    18    8    9 1
    19    8   31 1
    20    8   32 1
    21    9   19 1
    22    9   10 1
    23    9   11 1
    24   10   33 1
    25   11   12 1
    26   11   34 1
    27   11   35 1
    28   12   13 1
    29   12   36 1
    30   12   37 1
    31   13   14 1
    32   13   15 1
    33   13   18 1
    34   15   16 1
    35   15   17 1
    36   15   38 1
    37   16   39 1
    38   16   40 1
    39   16   41 1
    40   17   42 1
    41   17   43 1
    42   17   44 1
    43   18   19 1
    44   18   45 1
    45   18   46 1
    46   19   47 1
    47   19   48 1
    48   20   21 1
    49   20   22 ar
    50   22   49 1
##########                 Name:     ZINC000365834982
##########          Protonation:                 none
##########               SMILES:   C[C@H](C(=O)NC1=C2C=CC=CC2=CC=C1)[N@H+]1CC[C@@](O)(C2CC2)C1
##########            Long Name:   NO_LONG_NAME
##########          FlexRecCode: 1
##########               Number:                   33
##########   Ligand Source File: /nfs/db/export/3D/DG/ADMO/DGADMO.xaid.db2.gz
##########                 Rank:                    1
##########               Setnum:                   37
##########             Matchnum:                    1
##########                Cloud:                    1
##########        Electrostatic:           -45.216927
##########                 Gist:             0.000000
##########        Van der Waals:           -34.804726
##########  Ligand Polar Desolv:            13.531249
########## Ligand Apolar Desolv:            -5.170744
##########      Internal Energy:             0.000000
##########      Receptor Energy:             0.000000
########## Receptor Desolvation:             0.000000
########## Receptor Hydrophobic:             0.000000
##########         Total Energy:           -71.661148
##########        Ligand Charge:             1.000000
##########            Arbitrary:    +999.9990
##########        Ligand Energy:             0.000000

@<TRIPOS>MOLECULE
 ZINC000365834982      none
   49    52     0     0     0



@<TRIPOS>ATOM
      1 C1        -16.1340    16.8897   -19.1440 C.3        1  LIG1  -0.1800
      2 C2        -16.9027    17.3321   -17.8975 C.3        1  LIG1   0.0100
      3 H1        -17.0347    18.4140   -17.9168 H          1  LIG1   0.1700
      4 C3        -16.1279    16.9427   -16.6649 C.2        1  LIG1   0.5000
      5 O1        -15.7602    17.7957   -15.8851 O.2        1  LIG1  -0.5100
      6 N1        -15.8437    15.6465   -16.4292 N.am       1  LIG1  -0.6400
      7 C4        -15.1260    15.2858   -15.2874 C.ar       1  LIG1   0.1200
      8 C5        -15.3337    14.0272   -14.6841 C.ar       1  LIG1  -0.0500
      9 C6        -16.2584    13.1113   -15.2098 C.ar       1  LIG1  -0.1300
     10 C7        -16.4328    11.9054   -14.6018 C.ar       1  LIG1  -0.1000
     11 C8        -15.7061    11.5653   -13.4626 C.ar       1  LIG1  -0.1100
     12 C9        -14.8010    12.4282   -12.9253 C.ar       1  LIG1  -0.0900
     13 C10       -14.5939    13.6821   -13.5261 C.ar       1  LIG1  -0.0400
     14 C11       -13.6673    14.5977   -12.9992 C.ar       1  LIG1  -0.0900
     15 C12       -13.4868    15.8053   -13.6019 C.ar       1  LIG1  -0.1100
     16 C13       -14.2042    16.1534   -14.7424 C.ar       1  LIG1  -0.1000
     17 N2        -18.2182    16.6787   -17.8757 N.4        1  LIG1  -0.3800
     18 H2        -18.1087    15.6758   -17.8576 H          1  LIG1   0.4300
     19 C14       -18.9918    17.1286   -16.6981 C.3        1  LIG1  -0.0100
     20 C15       -20.4675    17.2087   -17.1309 C.3        1  LIG1  -0.1700
     21 C16       -20.4726    16.8093   -18.6243 C.3        1  LIG1   0.1600
     22 O2        -20.7912    15.4245   -18.7762 O.3        1  LIG1  -0.5300
     23 C17       -21.4536    17.6783   -19.4137 C.3        1  LIG1  -0.1600
     24 C18       -21.9653    17.1323   -20.7483 C.3        1  LIG1  -0.1600
     25 C19       -22.8962    17.1833   -19.5352 C.3        1  LIG1  -0.1600
     26 C20       -19.0120    17.0859   -19.0633 C.3        1  LIG1  -0.0300
     27 H3        -16.0019    15.8079   -19.1247 H          1  LIG1   0.1000
     28 H4        -16.6943    17.1715   -20.0355 H          1  LIG1   0.1100
     29 H5        -15.1578    17.3745   -19.1601 H          1  LIG1   0.0900
     30 H6        -16.1379    14.9643   -17.0528 H          1  LIG1   0.4200
     31 H7        -16.8290    13.3620   -16.0919 H          1  LIG1   0.1200
     32 H8        -17.1450    11.2026   -15.0084 H          1  LIG1   0.1300
     33 H9        -15.8635    10.6027   -12.9989 H          1  LIG1   0.1300
     34 H10       -14.2452    12.1512   -12.0418 H          1  LIG1   0.1400
     35 H11       -13.0992    14.3441   -12.1164 H          1  LIG1   0.1400
     36 H12       -12.7725    16.5029   -13.1901 H          1  LIG1   0.1300
     37 H13       -14.0423    17.1175   -15.2013 H          1  LIG1   0.1400
     38 H14       -18.8816    16.4108   -15.8852 H          1  LIG1   0.1500
     39 H15       -18.6444    18.1112   -16.3790 H          1  LIG1   0.1300
     40 H16       -21.0704    16.5105   -16.5503 H          1  LIG1   0.1200
     41 H17       -20.8425    18.2251   -17.0098 H          1  LIG1   0.1200
     42 H18       -20.1713    14.8276   -18.3351 H          1  LIG1   0.3800
     43 H19       -21.2954    18.7541   -19.3374 H          1  LIG1   0.1300
     44 H20       -22.1435    17.8486   -21.5502 H          1  LIG1   0.1000
     45 H21       -21.6029    16.1537   -21.0638 H          1  LIG1   0.1100
     46 H22       -23.1464    16.2385   -19.0525 H          1  LIG1   0.1000
     47 H23       -23.6871    17.9335   -19.5390 H          1  LIG1   0.1000
     48 H24       -18.8683    18.1453   -19.2758 H          1  LIG1   0.1500
     49 H25       -18.7494    16.4794   -19.9300 H          1  LIG1   0.1500
@<TRIPOS>BOND
     1    1    2 1
     2    1   27 1
     3    1   28 1
     4    1   29 1
     5    2    3 1
     6    2    4 1
     7    2   17 1
     8    4    5 2
     9    4    6 am
    10    6    7 1
    11    6   30 1
    12    7   16 ar
    13    7    8 ar
    14    8   13 ar
    15    8    9 ar
    16    9   10 ar
    17    9   31 1
    18   10   11 ar
    19   10   32 1
    20   11   12 ar
    21   11   33 1
    22   12   13 ar
    23   12   34 1
    24   13   14 ar
    25   14   15 ar
    26   14   35 1
    27   15   16 ar
    28   15   36 1
    29   16   37 1
    30   17   18 1
    31   17   26 1
    32   17   19 1
    33   19   20 1
    34   19   38 1
    35   19   39 1
    36   20   21 1
    37   20   40 1
    38   20   41 1
    39   21   22 1
    40   21   23 1
    41   21   26 1
    42   22   42 1
    43   23   25 1
    44   23   24 1
    45   23   43 1
    46   24   25 1
    47   24   44 1
    48   24   45 1
    49   25   46 1
    50   25   47 1
    51   26   48 1
    52   26   49 1
##########                 Name:     ZINC000615622500
##########          Protonation:                 none
##########               SMILES:   C[NH+](C)[C@@H](CNC(=O)NC[C@H]1CC2=CC=CC=C21)CC1=CC=CC=C1
##########            Long Name:   NO_LONG_NAME
##########          FlexRecCode: 1
##########               Number:                  400
##########   Ligand Source File: /nfs/db/export/3D/EF/ADRO/EFADRO.xclu.db2.gz
##########                 Rank:                    1
##########               Setnum:                   83
##########             Matchnum:                    1
##########                Cloud:                    1
##########        Electrostatic:           -45.740219
##########                 Gist:             0.000000
##########        Van der Waals:           -32.043934
##########  Ligand Polar Desolv:            16.518330
########## Ligand Apolar Desolv:            -6.239409
##########      Internal Energy:             0.000000
##########      Receptor Energy:             0.000000
########## Receptor Desolvation:             0.000000
########## Receptor Hydrophobic:             0.000000
##########         Total Energy:           -67.505226
##########        Ligand Charge:             1.000000
##########            Arbitrary:    +999.9990
##########        Ligand Energy:             0.000000

@<TRIPOS>MOLECULE
 ZINC000615622500      none
   53    55     0     0     0



@<TRIPOS>ATOM
      1 C1        -20.6183    17.0783   -17.5418 C.3        1  LIG1  -0.0600
      2 N1        -19.8312    16.3593   -18.5525 N.4        1  LIG1  -0.3800
      3 H1        -19.3359    15.5976   -18.1136 H          1  LIG1   0.4300
      4 C2        -20.7299    15.8281   -19.5860 C.3        1  LIG1  -0.0700
      5 C3        -18.8668    17.2804   -19.1684 C.3        1  LIG1   0.0200
      6 H2        -19.4020    18.1032   -19.6424 H          1  LIG1   0.1500
      7 C4        -17.9311    17.8337   -18.0919 C.3        1  LIG1   0.1200
      8 N2        -17.2117    16.7280   -17.4547 N.am       1  LIG1  -0.7700
      9 C5        -16.3262    16.9786   -16.4700 C.2        1  LIG1   0.7000
     10 O1        -16.1243    18.1225   -16.1106 O.2        1  LIG1  -0.5700
     11 N3        -15.6645    15.9614   -15.8837 N.am       1  LIG1  -0.7400
     12 C6        -14.7020    16.2338   -14.8134 C.3        1  LIG1   0.1500
     13 C7        -13.6059    15.1664   -14.8294 C.3        1  LIG1  -0.0500
     14 H3        -13.0607    15.1423   -15.7729 H          1  LIG1   0.1000
     15 C8        -12.6899    15.2267   -13.6068 C.3        1  LIG1  -0.0700
     16 C9        -13.2642    13.8636   -13.2827 C.ar       1  LIG1  -0.1300
     17 C10       -13.2533    12.7987   -12.3908 C.ar       1  LIG1  -0.1000
     18 C11       -14.0607    11.7005   -12.6069 C.ar       1  LIG1  -0.1100
     19 C12       -14.8861    11.6522   -13.7144 C.ar       1  LIG1  -0.1200
     20 C13       -14.9006    12.7087   -14.6055 C.ar       1  LIG1  -0.0900
     21 C14       -14.0936    13.8089   -14.3913 C.ar       1  LIG1  -0.1400
     22 C15       -18.0471    16.5316   -20.2211 C.3        1  LIG1  -0.1000
     23 C16       -17.0578    17.4765   -20.8530 C.ar       1  LIG1  -0.1300
     24 C17       -17.4143    18.2025   -21.9741 C.ar       1  LIG1  -0.1400
     25 C18       -16.5069    19.0692   -22.5536 C.ar       1  LIG1  -0.1100
     26 C19       -15.2430    19.2105   -22.0121 C.ar       1  LIG1  -0.1000
     27 C20       -14.8866    18.4852   -20.8905 C.ar       1  LIG1  -0.1000
     28 C21       -15.7956    17.6217   -20.3083 C.ar       1  LIG1  -0.1000
     29 H4        -21.1534    17.9011   -18.0157 H          1  LIG1   0.1300
     30 H5        -21.3340    16.3948   -17.0847 H          1  LIG1   0.1300
     31 H6        -19.9516    17.4724   -16.7748 H          1  LIG1   0.1300
     32 H7        -20.1459    15.2946   -20.3360 H          1  LIG1   0.1400
     33 H8        -21.4455    15.1446   -19.1289 H          1  LIG1   0.1200
     34 H9        -21.2651    16.6508   -20.0600 H          1  LIG1   0.1300
     35 H10       -17.2154    18.5172   -18.5490 H          1  LIG1   0.1000
     36 H11       -18.5151    18.3673   -17.3420 H          1  LIG1   0.1100
     37 H12       -17.3728    15.8155   -17.7413 H          1  LIG1   0.4000
     38 H13       -15.8255    15.0489   -16.1704 H          1  LIG1   0.4000
     39 H14       -14.2551    17.2160   -14.9680 H          1  LIG1   0.0800
     40 H15       -15.2137    16.2148   -13.8512 H          1  LIG1   0.0800
     41 H16       -11.6272    15.2138   -13.8483 H          1  LIG1   0.1000
     42 H17       -12.9585    16.0025   -12.8897 H          1  LIG1   0.1000
     43 H18       -12.6102    12.8305   -11.5237 H          1  LIG1   0.1200
     44 H19       -14.0473    10.8764   -11.9090 H          1  LIG1   0.1300
     45 H20       -15.5175    10.7923   -13.8828 H          1  LIG1   0.1300
     46 H21       -15.5442    12.6740   -15.4721 H          1  LIG1   0.1100
     47 H22       -17.5118    15.7088   -19.7471 H          1  LIG1   0.1200
     48 H23       -18.7138    16.1373   -20.9879 H          1  LIG1   0.1000
     49 H24       -18.4019    18.0922   -22.3972 H          1  LIG1   0.1200
     50 H25       -16.7852    19.6359   -23.4299 H          1  LIG1   0.1300
     51 H26       -14.5337    19.8873   -22.4653 H          1  LIG1   0.1300
     52 H27       -13.8990    18.5953   -20.4675 H          1  LIG1   0.1300
     53 H28       -15.5172    17.0551   -19.4320 H          1  LIG1   0.1300
@<TRIPOS>BOND
     1    1    2 1
     2    1   29 1
     3    1   30 1
     4    1   31 1
     5    2    3 1
     6    2    4 1
     7    2    5 1
     8    4   32 1
     9    4   33 1
    10    4   34 1
    11    5    6 1
    12    5    7 1
    13    5   22 1
    14    7    8 1
    15    7   35 1
    16    7   36 1
    17    8    9 am
    18    8   37 1
    19    9   10 2
    20    9   11 am
    21   11   12 1
    22   11   38 1
    23   12   13 1
    24   12   39 1
    25   12   40 1
    26   13   14 1
    27   13   21 1
    28   13   15 1
    29   15   16 1
    30   15   41 1
    31   15   42 1
    32   16   21 ar
    33   16   17 ar
    34   17   18 ar
    35   17   43 1
    36   18   19 ar
    37   18   44 1
    38   19   20 ar
    39   19   45 1
    40   20   21 ar
    41   20   46 1
    42   22   23 1
    43   22   47 1
    44   22   48 1
    45   23   28 ar
    46   23   24 ar
    47   24   25 ar
    48   24   49 1
    49   25   26 ar
    50   25   50 1
    51   26   27 ar
    52   26   51 1
    53   27   28 ar
    54   27   52 1
    55   28   53 1
##########                 Name:     ZINC000433256163
##########          Protonation:                 none
##########               SMILES:   CSC1=CC=CC(NC(=O)[C@H](C)[N@H+]2CC3(CCC3)C[C@H]2C)=C1
##########            Long Name:   NO_LONG_NAME
##########          FlexRecCode: 1
##########               Number:                 7146
##########   Ligand Source File: /nfs/db/export/3D/DI/ADMO/DIADMO.xav.db2.gz
##########                 Rank:                    1
##########               Setnum:                   46
##########             Matchnum:                    1
##########                Cloud:                    1
##########        Electrostatic:           -44.330177
##########                 Gist:             0.000000
##########        Van der Waals:           -27.714779
##########  Ligand Polar Desolv:            12.184142
########## Ligand Apolar Desolv:            -5.745737
##########      Internal Energy:             0.000000
##########      Receptor Energy:             0.000000
########## Receptor Desolvation:             0.000000
########## Receptor Hydrophobic:             0.000000
##########         Total Energy:           -65.606544
##########        Ligand Charge:             1.000000
##########            Arbitrary:    +999.9990
##########        Ligand Energy:             0.000000

@<TRIPOS>MOLECULE
 ZINC000433256163      none
   49    51     0     0     0



@<TRIPOS>ATOM
      1 C1        -12.2553    14.8001   -13.2564 C.3        1  LIG1  -0.1500
      2 S1        -13.3814    13.5543   -12.5705 S.3        1  LIG1  -0.1000
      3 C2        -14.4205    13.1631   -13.9386 C.ar       1  LIG1  -0.0600
      4 C3        -14.4722    11.8613   -14.4234 C.ar       1  LIG1  -0.1300
      5 C4        -15.2871    11.5542   -15.4958 C.ar       1  LIG1  -0.0800
      6 C5        -16.0530    12.5387   -16.0897 C.ar       1  LIG1  -0.1200
      7 C6        -16.0061    13.8421   -15.6102 C.ar       1  LIG1   0.1400
      8 N1        -16.7826    14.8382   -16.2125 N.am       1  LIG1  -0.6500
      9 C7        -16.3552    16.1163   -16.2151 C.2        1  LIG1   0.5100
     10 O1        -15.2975    16.4032   -15.6956 O.2        1  LIG1  -0.5100
     11 C8        -17.1914    17.1892   -16.8638 C.3        1  LIG1   0.0000
     12 H1        -16.5405    17.9750   -17.2474 H          1  LIG1   0.1700
     13 C9        -18.1519    17.7816   -15.8307 C.3        1  LIG1  -0.1800
     14 N2        -17.9613    16.6073   -17.9713 N.4        1  LIG1  -0.3800
     15 H2        -18.5680    15.8780   -17.6276 H          1  LIG1   0.4300
     16 C10       -18.7622    17.6628   -18.6482 C.3        1  LIG1   0.0200
     17 C11       -19.0002    17.0752   -20.0487 C.3        1  LIG1  -0.1100
     18 C12       -20.2957    16.2921   -20.2323 C.3        1  LIG1  -0.1300
     19 C13       -20.9168    17.6102   -20.7310 C.3        1  LIG1  -0.1500
     20 C14       -19.4913    18.0550   -21.1089 C.3        1  LIG1  -0.1200
     21 C15       -17.7035    16.3226   -20.3717 C.3        1  LIG1  -0.1200
     22 C16       -17.0451    16.0654   -18.9994 C.3        1  LIG1   0.0300
     23 H3        -16.9068    14.9947   -18.8486 H          1  LIG1   0.1500
     24 C17       -15.6943    16.7804   -18.9272 C.3        1  LIG1  -0.1800
     25 C18       -15.1932    14.1536   -14.5304 C.ar       1  LIG1  -0.1200
     26 H4        -11.5552    15.1208   -12.4850 H          1  LIG1   0.0900
     27 H5        -11.7034    14.3702   -14.0922 H          1  LIG1   0.1200
     28 H6        -12.8309    15.6581   -13.6039 H          1  LIG1   0.0900
     29 H7        -13.8745    11.0895   -13.9615 H          1  LIG1   0.1300
     30 H8        -15.3253    10.5420   -15.8708 H          1  LIG1   0.1400
     31 H9        -16.6887    12.2951   -16.9282 H          1  LIG1   0.1400
     32 H10       -17.6284    14.6088   -16.6282 H          1  LIG1   0.4200
     33 H11       -18.7566    18.5576   -16.2999 H          1  LIG1   0.0900
     34 H12       -18.8028    16.9959   -15.4471 H          1  LIG1   0.1100
     35 H13       -17.5806    18.2134   -15.0091 H          1  LIG1   0.1000
     36 H14       -19.7085    17.8196   -18.1305 H          1  LIG1   0.1400
     37 H15       -18.1979    18.5931   -18.7117 H          1  LIG1   0.1400
     38 H16       -20.2352    15.5190   -20.9983 H          1  LIG1   0.1000
     39 H17       -20.7256    15.9317   -19.2976 H          1  LIG1   0.0700
     40 H18       -21.5760    17.4839   -21.5899 H          1  LIG1   0.0800
     41 H19       -21.3644    18.2089   -19.9379 H          1  LIG1   0.0900
     42 H20       -19.2811    19.0981   -20.8722 H          1  LIG1   0.0800
     43 H21       -19.2024    17.7827   -22.1240 H          1  LIG1   0.1000
     44 H22       -17.9266    15.3778   -20.8677 H          1  LIG1   0.1100
     45 H23       -17.0539    16.9360   -20.9962 H          1  LIG1   0.1100
     46 H24       -15.0272    16.3743   -19.6878 H          1  LIG1   0.0800
     47 H25       -15.8377    17.8467   -19.1018 H          1  LIG1   0.0700
     48 H26       -15.2554    16.6294   -17.9410 H          1  LIG1   0.1100
     49 H27       -15.1553    15.1658   -14.1558 H          1  LIG1   0.1300
@<TRIPOS>BOND
     1    1    2 1
     2    1   26 1
     3    1   27 1
     4    1   28 1
     5    2    3 1
     6    3   25 ar
     7    3    4 ar
     8    4    5 ar
     9    4   29 1
    10    5    6 ar
    11    5   30 1
    12    6    7 ar
    13    6   31 1
    14    7    8 1
    15    7   25 ar
    16    8    9 am
    17    8   32 1
    18    9   10 2
    19    9   11 1
    20   11   12 1
    21   11   13 1
    22   11   14 1
    23   13   33 1
    24   13   34 1
    25   13   35 1
    26   14   15 1
    27   14   22 1
    28   14   16 1
    29   16   17 1
    30   16   36 1
    31   16   37 1
    32   17   20 1
    33   17   18 1
    34   17   21 1
    35   18   19 1
    36   18   38 1
    37   18   39 1
    38   19   20 1
    39   19   40 1
    40   19   41 1
    41   20   42 1
    42   20   43 1
    43   21   22 1
    44   21   44 1
    45   21   45 1
    46   22   23 1
    47   22   24 1
    48   24   46 1
    49   24   47 1
    50   24   48 1
    51   25   49 1
##########                 Name:     ZINC000651262870
##########          Protonation:                 none
##########               SMILES:   C[C@H](CNC(=O)C1=COC2=CC=C(Cl)C=C12)[NH+]1CCCC1
##########            Long Name:   NO_LONG_NAME
##########          FlexRecCode: 1
##########               Number:                13700
##########   Ligand Source File: /nfs/db/export/3D/DG/ADRO/DGADRO.xamu.db2.gz
##########                 Rank:                    1
##########               Setnum:                   44
##########             Matchnum:                    1
##########                Cloud:                    1
##########        Electrostatic:           -48.916489
##########                 Gist:             0.000000
##########        Van der Waals:           -29.651411
##########  Ligand Polar Desolv:            19.130095
########## Ligand Apolar Desolv:            -4.798462
##########      Internal Energy:             0.000000
##########      Receptor Energy:             0.000000
########## Receptor Desolvation:             0.000000
########## Receptor Hydrophobic:             0.000000
##########         Total Energy:           -64.236267
##########        Ligand Charge:             1.000000
##########            Arbitrary:    +999.9990
##########        Ligand Energy:             0.000000

@<TRIPOS>MOLECULE
 ZINC000651262870      none
   41    43     0     0     0



@<TRIPOS>ATOM
      1 C1        -16.6787    16.7495   -19.1857 C.3        1  LIG1  -0.1800
      2 C2        -17.8956    17.2871   -18.4300 C.3        1  LIG1   0.0200
      3 H1        -18.1211    18.2961   -18.7755 H          1  LIG1   0.1400
      4 C3        -17.5925    17.3170   -16.9307 C.3        1  LIG1   0.1000
      5 N1        -17.2895    15.9608   -16.4667 N.am       1  LIG1  -0.7300
      6 C4        -16.0910    15.6903   -15.9129 C.2        1  LIG1   0.6000
      7 O1        -15.2608    16.5721   -15.7984 O.2        1  LIG1  -0.5100
      8 C5        -15.7867    14.3288   -15.4470 C.2        1  LIG1  -0.2400
      9 C6        -16.2661    13.1608   -15.9540 C.2        1  LIG1   0.0800
     10 O2        -15.7632    12.1274   -15.2688 O.3        1  LIG1  -0.1700
     11 C7        -14.9372    12.5445   -14.2869 C.ar       1  LIG1   0.0500
     12 C8        -14.1898    11.8743   -13.3265 C.ar       1  LIG1  -0.0800
     13 C9        -13.4193    12.5865   -12.4321 C.ar       1  LIG1  -0.0800
     14 C10       -13.3812    13.9728   -12.4788 C.ar       1  LIG1  -0.0400
     15 Cl1       -12.4051    14.8506   -11.3429 Cl         1  LIG1  -0.0500
     16 C11       -14.1166    14.6553   -13.4260 C.ar       1  LIG1  -0.0600
     17 C12       -14.8925    13.9457   -14.3363 C.ar       1  LIG1  -0.0900
     18 N2        -19.0511    16.4147   -18.6787 N.4        1  LIG1  -0.3900
     19 H2        -18.8540    15.4770   -18.3628 H          1  LIG1   0.4300
     20 C13       -20.2527    16.9465   -17.9863 C.3        1  LIG1  -0.0100
     21 C14       -21.4259    16.3021   -18.7668 C.3        1  LIG1  -0.1400
     22 C15       -20.9187    16.3165   -20.2271 C.3        1  LIG1  -0.1400
     23 C16       -19.3842    16.4079   -20.1197 C.3        1  LIG1  -0.0100
     24 H3        -16.4532    15.7406   -18.8404 H          1  LIG1   0.1000
     25 H4        -16.8944    16.7281   -20.2539 H          1  LIG1   0.0900
     26 H5        -15.8213    17.3968   -19.0011 H          1  LIG1   0.0900
     27 H6        -16.7351    17.9642   -16.7463 H          1  LIG1   0.0900
     28 H7        -18.4594    17.7001   -16.3923 H          1  LIG1   0.1000
     29 H8        -17.9516    15.2578   -16.5578 H          1  LIG1   0.4000
     30 H9        -16.9508    13.0799   -16.7854 H          1  LIG1   0.2200
     31 H10       -14.2125    10.7956   -13.2804 H          1  LIG1   0.1500
     32 H11       -12.8403    12.0604   -11.6875 H          1  LIG1   0.1500
     33 H12       -14.0871    15.7342   -13.4627 H          1  LIG1   0.1500
     34 H13       -20.2662    16.6319   -16.9427 H          1  LIG1   0.1400
     35 H14       -20.2911    18.0331   -18.0622 H          1  LIG1   0.1400
     36 H15       -21.5991    15.2805   -18.4286 H          1  LIG1   0.1000
     37 H16       -22.3308    16.9013   -18.6668 H          1  LIG1   0.1200
     38 H17       -21.2072    15.3973   -20.7369 H          1  LIG1   0.1100
     39 H18       -21.3140    17.1836   -20.7564 H          1  LIG1   0.1000
     40 H19       -19.0337    17.3290   -20.5853 H          1  LIG1   0.1300
     41 H20       -18.9260    15.5459   -20.6045 H          1  LIG1   0.1300
@<TRIPOS>BOND
     1    1    2 1
     2    1   24 1
     3    1   25 1
     4    1   26 1
     5    2    3 1
     6    2    4 1
     7    2   18 1
     8    4    5 1
     9    4   27 1
    10    4   28 1
    11    5    6 am
    12    5   29 1
    13    6    7 2
    14    6    8 1
    15    8   17 1
    16    8    9 2
    17    9   10 1
    18    9   30 1
    19   10   11 1
    20   11   17 ar
    21   11   12 ar
    22   12   13 ar
    23   12   31 1
    24   13   14 ar
    25   13   32 1
    26   14   15 1
    27   14   16 ar
    28   16   17 ar
    29   16   33 1
    30   18   19 1
    31   18   23 1
    32   18   20 1
    33   20   21 1
    34   20   34 1
    35   20   35 1
    36   21   22 1
    37   21   36 1
    38   21   37 1
    39   22   23 1
    40   22   38 1
    41   22   39 1
    42   23   40 1
    43   23   41 1
##########                 Name:     ZINC000348555593
##########          Protonation:                 none
##########               SMILES:   C[N@@H+](CC1=CN(C2=CC=C(Cl)C=C2Cl)N=N1)[C@H]1CCC[C@H]1O
##########            Long Name:   NO_LONG_NAME
##########          FlexRecCode: 1
##########               Number:                  487
##########   Ligand Source File: /nfs/db/export/3D/EF/ADMO/EFADMO.xbox.db2.gz
##########                 Rank:                    1
##########               Setnum:                   59
##########             Matchnum:                    1
##########                Cloud:                    1
##########        Electrostatic:           -44.547512
##########                 Gist:             0.000000
##########        Van der Waals:           -33.765438
##########  Ligand Polar Desolv:            15.663991
########## Ligand Apolar Desolv:            -4.594756
##########      Internal Energy:             0.000000
##########      Receptor Energy:             0.000000
########## Receptor Desolvation:             0.000000
########## Receptor Hydrophobic:             0.000000
##########         Total Energy:           -67.243713
##########        Ligand Charge:             1.000000
##########            Arbitrary:    +999.9990
##########        Ligand Energy:             0.000000

@<TRIPOS>MOLECULE
 ZINC000348555593      none
   41    43     0     0     0



@<TRIPOS>ATOM
      1 C1        -16.7876    16.4310   -19.4452 C.3        1  LIG1  -0.0500
      2 N1        -17.7094    16.7131   -18.3366 N.4        1  LIG1  -0.3700
      3 H1        -17.9551    15.8499   -17.8756 H          1  LIG1   0.4400
      4 C2        -17.0584    17.6134   -17.3755 C.3        1  LIG1   0.1000
      5 C3        -16.1330    16.8189   -16.4904 C.2        1  LIG1  -0.0800
      6 C4        -16.4015    15.6323   -15.8962 C.2        1  LIG1  -0.0100
      7 N2        -15.2805    15.2976   -15.2007 N.pl3      1  LIG1  -0.2300
      8 C5        -15.1058    14.1396   -14.4282 C.ar       1  LIG1   0.1100
      9 C6        -15.7667    12.9687   -14.7717 C.ar       1  LIG1  -0.0900
     10 C7        -15.5929    11.8294   -14.0099 C.ar       1  LIG1  -0.0800
     11 C8        -14.7609    11.8547   -12.9045 C.ar       1  LIG1  -0.0100
     12 Cl1       -14.5455    10.4212   -11.9494 Cl         1  LIG1  -0.0200
     13 C9        -14.0999    13.0206   -12.5594 C.ar       1  LIG1  -0.0800
     14 C10       -14.2663    14.1615   -13.3212 C.ar       1  LIG1  -0.0100
     15 Cl2       -13.4372    15.6240   -12.8881 Cl         1  LIG1   0.0000
     16 N3        -14.4084    16.2284   -15.3751 N.2        1  LIG1  -0.0300
     17 N4        -14.8833    17.1448   -16.1422 N.2        1  LIG1  -0.2300
     18 C11       -18.9242    17.3517   -18.8604 C.3        1  LIG1   0.0300
     19 H2        -18.6763    18.2871   -19.3623 H          1  LIG1   0.1500
     20 C12       -19.6643    16.3964   -19.8290 C.3        1  LIG1  -0.1400
     21 C13       -21.1190    16.9267   -19.7871 C.3        1  LIG1  -0.1200
     22 C14       -21.3332    17.3277   -18.3130 C.3        1  LIG1  -0.1600
     23 C15       -19.9362    17.6011   -17.7232 C.3        1  LIG1   0.0900
     24 H3        -19.8713    18.6339   -17.3804 H          1  LIG1   0.0900
     25 O1        -19.6800    16.7084   -16.6370 O.3        1  LIG1  -0.5800
     26 H4        -16.5220    17.3634   -19.9432 H          1  LIG1   0.1200
     27 H5        -15.8862    15.9571   -19.0565 H          1  LIG1   0.1300
     28 H6        -17.2706    15.7630   -20.1583 H          1  LIG1   0.1300
     29 H7        -16.4860    18.3681   -17.9149 H          1  LIG1   0.1400
     30 H8        -17.8168    18.1012   -16.7634 H          1  LIG1   0.1500
     31 H9        -17.3191    15.0665   -15.9607 H          1  LIG1   0.2000
     32 H10       -16.4168    12.9483   -15.6339 H          1  LIG1   0.1500
     33 H11       -16.1072    10.9181   -14.2772 H          1  LIG1   0.1600
     34 H12       -13.4509    13.0377   -11.6964 H          1  LIG1   0.1600
     35 H13       -19.2541    16.4731   -20.8359 H          1  LIG1   0.1000
     36 H14       -19.6174    15.3686   -19.4689 H          1  LIG1   0.0900
     37 H15       -21.2278    17.7942   -20.4380 H          1  LIG1   0.0800
     38 H16       -21.8194    16.1426   -20.0749 H          1  LIG1   0.0900
     39 H17       -21.9435    18.2289   -18.2560 H          1  LIG1   0.0900
     40 H18       -21.8162    16.5143   -17.7712 H          1  LIG1   0.0900
     41 H19       -19.7473    15.7730   -16.8726 H          1  LIG1   0.4100
@<TRIPOS>BOND
     1    1    2 1
     2    1   26 1
     3    1   27 1
     4    1   28 1
     5    2    3 1
     6    2    4 1
     7    2   18 1
     8    4    5 1
     9    4   29 1
    10    4   30 1
    11    5   17 1
    12    5    6 2
    13    6    7 1
    14    6   31 1
    15    7    8 1
    16    7   16 1
    17    8   14 ar
    18    8    9 ar
    19    9   10 ar
    20    9   32 1
    21   10   11 ar
    22   10   33 1
    23   11   12 1
    24   11   13 ar
    25   13   14 ar
    26   13   34 1
    27   14   15 1
    28   16   17 2
    29   18   19 1
    30   18   23 1
    31   18   20 1
    32   20   21 1
    33   20   35 1
    34   20   36 1
    35   21   22 1
    36   21   37 1
    37   21   38 1
    38   22   23 1
    39   22   39 1
    40   22   40 1
    41   23   24 1
    42   23   25 1
    43   25   41 1
##########                 Name:     ZINC000112717206
##########          Protonation:                 none
##########               SMILES:   OC1(C[NH2+]Cc2ccc(-c3ccccc3)s2)CCOCC1
##########            Long Name:   NO_LONG_NAME
##########          FlexRecCode: 1
##########               Number:                 7942
##########   Ligand Source File: /nfs/db/export/3D/DG/ADRO/DGADRO.xble.db2.gz
##########                 Rank:                    1
##########               Setnum:                  142
##########             Matchnum:                    1
##########                Cloud:                    1
##########        Electrostatic:           -42.455212
##########                 Gist:             0.000000
##########        Van der Waals:           -29.615215
##########  Ligand Polar Desolv:            12.030022
########## Ligand Apolar Desolv:            -3.794191
##########      Internal Energy:             0.000000
##########      Receptor Energy:             0.000000
########## Receptor Desolvation:             0.000000
########## Receptor Hydrophobic:             0.000000
##########         Total Energy:           -63.834595
##########        Ligand Charge:             1.000000
##########            Arbitrary:    +999.9990
##########        Ligand Energy:             0.000000

@<TRIPOS>MOLECULE
 ZINC000112717206      none
   43    45     0     0     0



@<TRIPOS>ATOM
      1 O1        -20.5338    15.4096   -19.1361 O.3        1  LIG1  -0.5600
      2 C1        -20.2922    16.8181   -19.1371 C.3        1  LIG1   0.1100
      3 C2        -18.7872    17.0791   -19.2253 C.3        1  LIG1   0.0100
      4 N1        -18.1160    16.4689   -18.0699 N.4        1  LIG1  -0.5100
      5 H1        -18.4781    16.8724   -17.2189 H          1  LIG1   0.4300
      6 H2        -18.2852    15.4742   -18.0691 H          1  LIG1   0.4300
      7 C3        -16.6709    16.7196   -18.1545 C.3        1  LIG1   0.0800
      8 C4        -15.9822    16.0936   -16.9692 C.2        1  LIG1  -0.3100
      9 C5        -15.0442    16.6856   -16.2244 C.2        1  LIG1  -0.0600
     10 C6        -14.5532    15.9208   -15.1864 C.2        1  LIG1  -0.1600
     11 C7        -15.0982    14.6921   -15.0852 C.2        1  LIG1  -0.0800
     12 C8        -14.7464    13.6838   -14.0629 C.ar       1  LIG1  -0.0500
     13 C9        -15.3761    12.4383   -14.0610 C.ar       1  LIG1  -0.0900
     14 C10       -15.0428    11.5017   -13.1045 C.ar       1  LIG1  -0.1100
     15 C11       -14.0866    11.7948   -12.1485 C.ar       1  LIG1  -0.1000
     16 C12       -13.4589    13.0278   -12.1445 C.ar       1  LIG1  -0.1100
     17 C13       -13.7788    13.9712   -13.0989 C.ar       1  LIG1  -0.1000
     18 S1        -16.2977    14.4769   -16.3534 S.3        1  LIG1   0.1700
     19 C14       -20.9963    17.4578   -20.3377 C.3        1  LIG1  -0.2000
     20 C15       -22.5077    17.2576   -20.1991 C.3        1  LIG1   0.0600
     21 O2        -22.9511    17.8257   -18.9652 O.3        1  LIG1  -0.3700
     22 C16       -22.3616    17.2343   -17.8054 C.3        1  LIG1   0.0500
     23 C17       -20.8444    17.4336   -17.8478 C.3        1  LIG1  -0.1800
     24 H3        -20.1219    14.9405   -18.3975 H          1  LIG1   0.4000
     25 H4        -18.3961    16.6433   -20.1447 H          1  LIG1   0.1500
     26 H5        -18.6043    18.1536   -19.2261 H          1  LIG1   0.1400
     27 H6        -16.2798    16.2838   -19.0738 H          1  LIG1   0.1500
     28 H7        -16.4880    17.7941   -18.1553 H          1  LIG1   0.1400
     29 H8        -14.6954    17.6888   -16.4207 H          1  LIG1   0.1500
     30 H9        -13.7922    16.2782   -14.5085 H          1  LIG1   0.1600
     31 H10       -16.1229    12.2083   -14.8066 H          1  LIG1   0.1300
     32 H11       -15.5296    10.5376   -13.1018 H          1  LIG1   0.1300
     33 H12       -13.8294    11.0581   -11.4019 H          1  LIG1   0.1300
     34 H13       -12.7139    13.2506   -11.3950 H          1  LIG1   0.1300
     35 H14       -13.2879    14.9331   -13.0949 H          1  LIG1   0.1200
     36 H15       -20.7712    18.5240   -20.3663 H          1  LIG1   0.1000
     37 H16       -20.6493    16.9865   -21.2572 H          1  LIG1   0.0800
     38 H17       -23.0170    17.7479   -21.0289 H          1  LIG1   0.1100
     39 H18       -22.7358    16.1918   -20.2113 H          1  LIG1   0.0600
     40 H19       -22.7657    17.7079   -16.9107 H          1  LIG1   0.1100
     41 H20       -22.5879    16.1683   -17.7862 H          1  LIG1   0.0600
     42 H21       -20.3886    16.9450   -16.9867 H          1  LIG1   0.1000
     43 H22       -20.6162    18.4993   -17.8261 H          1  LIG1   0.1000
@<TRIPOS>BOND
     1    1    2 1
     2    1   24 1
     3    2   23 1
     4    2    3 1
     5    2   19 1
     6    3    4 1
     7    3   25 1
     8    3   26 1
     9    4    5 1
    10    4    6 1
    11    4    7 1
    12    7    8 1
    13    7   27 1
    14    7   28 1
    15    8   18 1
    16    8    9 2
    17    9   10 1
    18    9   29 1
    19   10   11 2
    20   10   30 1
    21   11   12 1
    22   11   18 1
    23   12   17 ar
    24   12   13 ar
    25   13   14 ar
    26   13   31 1
    27   14   15 ar
    28   14   32 1
    29   15   16 ar
    30   15   33 1
    31   16   17 ar
    32   16   34 1
    33   17   35 1
    34   19   20 1
    35   19   36 1
    36   19   37 1
    37   20   21 1
    38   20   38 1
    39   20   39 1
    40   21   22 1
    41   22   23 1
    42   22   40 1
    43   22   41 1
    44   23   42 1
    45   23   43 1
##########                 Name:     ZINC000361363076
##########          Protonation:                 none
##########               SMILES:   CO[C@@H]1CC[N@H+]([C@H](C)C(=O)NC2=CC=C(SC)C=C2)C1
##########            Long Name:   NO_LONG_NAME
##########          FlexRecCode: 1
##########               Number:                10575
##########   Ligand Source File: /nfs/db/export/3D/CE/ADMO/CEADMO.xbgg.db2.gz
##########                 Rank:                    1
##########               Setnum:                   34
##########             Matchnum:                    1
##########                Cloud:                    1
##########        Electrostatic:           -47.478226
##########                 Gist:             0.000000
##########        Van der Waals:           -26.581228
##########  Ligand Polar Desolv:            14.208567
########## Ligand Apolar Desolv:            -3.831423
##########      Internal Energy:             0.000000
##########      Receptor Energy:             0.000000
########## Receptor Desolvation:             0.000000
########## Receptor Hydrophobic:             0.000000
##########         Total Energy:           -63.682312
##########        Ligand Charge:             1.000000
##########            Arbitrary:    +999.9990
##########        Ligand Energy:             0.000000

@<TRIPOS>MOLECULE
 ZINC000361363076      none
   43    44     0     0     0



@<TRIPOS>ATOM
      1 C1        -23.3212    17.9736   -19.5079 C.3        1  LIG1   0.0300
      2 O1        -22.0577    17.5343   -20.0107 O.3        1  LIG1  -0.3600
      3 C2        -21.2418    16.8777   -19.0386 C.3        1  LIG1   0.0700
      4 H1        -21.7414    15.9917   -18.6468 H          1  LIG1   0.1000
      5 C3        -20.8525    17.8485   -17.8927 C.3        1  LIG1  -0.1700
      6 C4        -19.5254    17.2575   -17.3722 C.3        1  LIG1   0.0000
      7 N1        -18.9555    16.4396   -18.4587 N.4        1  LIG1  -0.3700
      8 H2        -18.8759    15.4806   -18.1557 H          1  LIG1   0.4300
      9 C5        -17.6293    16.9560   -18.8227 C.3        1  LIG1   0.0100
     10 H3        -17.7211    17.9891   -19.1578 H          1  LIG1   0.1700
     11 C6        -17.0421    16.1044   -19.9500 C.3        1  LIG1  -0.1800
     12 C7        -16.7201    16.8962   -17.6224 C.2        1  LIG1   0.5000
     13 O2        -16.2240    17.9133   -17.1858 O.2        1  LIG1  -0.5100
     14 N2        -16.4581    15.7123   -17.0336 N.am       1  LIG1  -0.6400
     15 C8        -15.6128    15.6566   -15.9174 C.ar       1  LIG1   0.1100
     16 C9        -15.7933    14.6686   -14.9584 C.ar       1  LIG1  -0.1100
     17 C10       -14.9612    14.6139   -13.8583 C.ar       1  LIG1  -0.0800
     18 C11       -13.9425    15.5465   -13.7109 C.ar       1  LIG1  -0.0800
     19 S1        -12.8797    15.4765   -12.3074 S.3        1  LIG1  -0.1000
     20 C12       -12.8458    13.7079   -11.9088 C.3        1  LIG1  -0.1500
     21 C13       -13.7618    16.5352   -14.6710 C.ar       1  LIG1  -0.1200
     22 C14       -14.5912    16.5862   -15.7733 C.ar       1  LIG1  -0.0900
     23 C15       -19.8558    16.5177   -19.6294 C.3        1  LIG1  -0.0100
     24 H4        -23.8803    18.4614   -20.3063 H          1  LIG1   0.0500
     25 H5        -23.8848    17.1154   -19.1416 H          1  LIG1   0.1000
     26 H6        -23.1623    18.6788   -18.6921 H          1  LIG1   0.0500
     27 H7        -20.7007    18.8571   -18.2771 H          1  LIG1   0.1100
     28 H8        -21.6102    17.8434   -17.1092 H          1  LIG1   0.1200
     29 H9        -18.8372    18.0622   -17.1138 H          1  LIG1   0.1300
     30 H10       -19.7146    16.6337   -16.4987 H          1  LIG1   0.1400
     31 H11       -16.0581    16.4875   -20.2201 H          1  LIG1   0.0900
     32 H12       -16.9503    15.0712   -19.6149 H          1  LIG1   0.1000
     33 H13       -17.6998    16.1475   -20.8183 H          1  LIG1   0.1100
     34 H14       -16.8548    14.8988   -17.3828 H          1  LIG1   0.4200
     35 H15       -16.5853    13.9434   -15.0730 H          1  LIG1   0.1400
     36 H16       -15.1022    13.8459   -13.1123 H          1  LIG1   0.1400
     37 H17       -12.2073    13.5432   -11.0409 H          1  LIG1   0.1100
     38 H18       -13.8566    13.3663   -11.6864 H          1  LIG1   0.0900
     39 H19       -12.4531    13.1513   -12.7598 H          1  LIG1   0.0900
     40 H20       -12.9703    17.2612   -14.5566 H          1  LIG1   0.1300
     41 H21       -14.4506    17.3540   -16.5197 H          1  LIG1   0.1400
     42 H22       -19.8982    15.5559   -20.1404 H          1  LIG1   0.1500
     43 H23       -19.5217    17.2975   -20.3137 H          1  LIG1   0.1500
@<TRIPOS>BOND
     1    1    2 1
     2    1   24 1
     3    1   25 1
     4    1   26 1
     5    2    3 1
     6    3    4 1
     7    3   23 1
     8    3    5 1
     9    5    6 1
    10    5   27 1
    11    5   28 1
    12    6    7 1
    13    6   29 1
    14    6   30 1
    15    7    8 1
    16    7    9 1
    17    7   23 1
    18    9   10 1
    19    9   11 1
    20    9   12 1
    21   11   31 1
    22   11   32 1
    23   11   33 1
    24   12   13 2
    25   12   14 am
    26   14   15 1
    27   14   34 1
    28   15   22 ar
    29   15   16 ar
    30   16   17 ar
    31   16   35 1
    32   17   18 ar
    33   17   36 1
    34   18   19 1
    35   18   21 ar
    36   19   20 1
    37   20   37 1
    38   20   38 1
    39   20   39 1
    40   21   22 ar
    41   21   40 1
    42   22   41 1
    43   23   42 1
    44   23   43 1
##########                 Name:     ZINC000639558608
##########          Protonation:                 none
##########               SMILES:   C[C@H](C1=NN=C(C2=CC=C3C=CC=CC3=C2)O1)[N@@H+]1C[C@@H](C)[C@@H](O)C1
##########            Long Name:   NO_LONG_NAME
##########          FlexRecCode: 1
##########               Number:                 3649
##########   Ligand Source File: /nfs/db/export/3D/DG/ADRO/DGADRO.xbbq.db2.gz
##########                 Rank:                    1
##########               Setnum:                   18
##########             Matchnum:                    1
##########                Cloud:                    1
##########        Electrostatic:           -40.765274
##########                 Gist:             0.000000
##########        Van der Waals:           -37.186218
##########  Ligand Polar Desolv:            14.543531
########## Ligand Apolar Desolv:            -2.793501
##########      Internal Energy:             0.000000
##########      Receptor Energy:             0.000000
########## Receptor Desolvation:             0.000000
########## Receptor Hydrophobic:             0.000000
##########         Total Energy:           -66.201462
##########        Ligand Charge:             1.000000
##########            Arbitrary:    +999.9990
##########        Ligand Energy:             0.000000

@<TRIPOS>MOLECULE
 ZINC000639558608      none
   46    49     0     0     0



@<TRIPOS>ATOM
      1 C1        -16.8968    16.2631   -19.9885 C.3        1  LIG1  -0.1800
      2 C2        -17.4969    17.0598   -18.8282 C.3        1  LIG1   0.1500
      3 H1        -17.5228    18.1178   -19.0891 H          1  LIG1   0.1700
      4 C3        -16.6512    16.8669   -17.5959 C.2        1  LIG1   0.0800
      5 N1        -16.0371    17.8043   -16.9293 N.2        1  LIG1  -0.2400
      6 N2        -15.4092    17.2835   -15.9343 N.2        1  LIG1  -0.2700
      7 C4        -15.6028    15.9854   -15.9320 C.2        1  LIG1   0.2700
      8 C5        -15.0565    15.0192   -14.9561 C.ar       1  LIG1  -0.0600
      9 C6        -13.9415    15.3714   -14.1754 C.ar       1  LIG1  -0.0900
     10 C7        -13.4211    14.5013   -13.2724 C.ar       1  LIG1  -0.0900
     11 C8        -13.9978    13.2290   -13.1080 C.ar       1  LIG1  -0.0300
     12 C9        -13.4775    12.3117   -12.1798 C.ar       1  LIG1  -0.1100
     13 C10       -14.0574    11.0877   -12.0426 C.ar       1  LIG1  -0.0900
     14 C11       -15.1632    10.7270   -12.8104 C.ar       1  LIG1  -0.1100
     15 C12       -15.6950    11.5883   -13.7200 C.ar       1  LIG1  -0.0900
     16 C13       -15.1232    12.8622   -13.8894 C.ar       1  LIG1  -0.0700
     17 C14       -15.6503    13.7763   -14.8136 C.ar       1  LIG1  -0.0200
     18 O1        -16.3985    15.6983   -16.9818 O.3        1  LIG1  -0.2000
     19 N3        -18.8624    16.5870   -18.5641 N.4        1  LIG1  -0.3900
     20 H2        -18.8559    15.6077   -18.3208 H          1  LIG1   0.4400
     21 C15       -19.7316    16.8231   -19.7455 C.3        1  LIG1   0.0000
     22 C16       -21.1671    16.8273   -19.1775 C.3        1  LIG1  -0.1000
     23 H3        -21.7753    17.5718   -19.6912 H          1  LIG1   0.1300
     24 C17       -21.7975    15.4401   -19.3160 C.3        1  LIG1  -0.1500
     25 C18       -21.0082    17.2000   -17.6891 C.3        1  LIG1   0.0900
     26 H4        -21.5384    18.1272   -17.4722 H          1  LIG1   0.1100
     27 O2        -21.4960    16.1446   -16.8583 O.3        1  LIG1  -0.5400
     28 C19       -19.4888    17.3874   -17.4807 C.3        1  LIG1  -0.0400
     29 H5        -16.8709    15.2051   -19.7276 H          1  LIG1   0.0900
     30 H6        -17.5084    16.4027   -20.8798 H          1  LIG1   0.1000
     31 H7        -15.8835    16.6138   -20.1844 H          1  LIG1   0.1100
     32 H8        -13.4928    16.3464   -14.2958 H          1  LIG1   0.1300
     33 H9        -12.5637    14.7859   -12.6804 H          1  LIG1   0.1400
     34 H10       -12.6208    12.5762   -11.5777 H          1  LIG1   0.1400
     35 H11       -13.6542    10.3853   -11.3282 H          1  LIG1   0.1300
     36 H12       -15.6043     9.7496   -12.6820 H          1  LIG1   0.1300
     37 H13       -16.5517    11.2952   -14.3086 H          1  LIG1   0.1400
     38 H14       -16.5094    13.5114   -15.4120 H          1  LIG1   0.1500
     39 H15       -19.5003    17.7857   -20.2013 H          1  LIG1   0.1400
     40 H16       -19.6125    16.0191   -20.4717 H          1  LIG1   0.1500
     41 H17       -22.8094    15.4589   -18.9111 H          1  LIG1   0.0700
     42 H18       -21.8326    15.1605   -20.3688 H          1  LIG1   0.0800
     43 H19       -21.1997    14.7128   -18.7664 H          1  LIG1   0.0700
     44 H20       -21.0388    15.3018   -16.9837 H          1  LIG1   0.4000
     45 H21       -19.1898    17.0095   -16.5030 H          1  LIG1   0.1300
     46 H22       -19.2180    18.4384   -17.5822 H          1  LIG1   0.1400
@<TRIPOS>BOND
     1    1    2 1
     2    1   29 1
     3    1   30 1
     4    1   31 1
     5    2    3 1
     6    2    4 1
     7    2   19 1
     8    4   18 1
     9    4    5 2
    10    5    6 1
    11    6    7 2
    12    7    8 1
    13    7   18 1
    14    8   17 ar
    15    8    9 ar
    16    9   10 ar
    17    9   32 1
    18   10   11 ar
    19   10   33 1
    20   11   16 ar
    21   11   12 ar
    22   12   13 ar
    23   12   34 1
    24   13   14 ar
    25   13   35 1
    26   14   15 ar
    27   14   36 1
    28   15   16 ar
    29   15   37 1
    30   16   17 ar
    31   17   38 1
    32   19   20 1
    33   19   28 1
    34   19   21 1
    35   21   22 1
    36   21   39 1
    37   21   40 1
    38   22   23 1
    39   22   24 1
    40   22   25 1
    41   24   41 1
    42   24   42 1
    43   24   43 1
    44   25   26 1
    45   25   27 1
    46   25   28 1
    47   27   44 1
    48   28   45 1
    49   28   46 1
##########                 Name:     ZINC000451895384
##########          Protonation:                 none
##########               SMILES:   CC1=CC=C(NC(=O)[C@H](C)[N@H+]2CCC[C@]3(CCOC3)C2)C(Cl)=C1
##########            Long Name:   NO_LONG_NAME
##########          FlexRecCode: 1
##########               Number:                14871
##########   Ligand Source File: /nfs/db/export/3D/EG/ADMO/EGADMO.xamg.db2.gz
##########                 Rank:                    1
##########               Setnum:                   61
##########             Matchnum:                    1
##########                Cloud:                    1
##########        Electrostatic:           -43.611343
##########                 Gist:             0.000000
##########        Van der Waals:           -30.513723
##########  Ligand Polar Desolv:            13.904595
########## Ligand Apolar Desolv:            -4.747636
##########      Internal Energy:             0.000000
##########      Receptor Energy:             0.000000
########## Receptor Desolvation:             0.000000
########## Receptor Hydrophobic:             0.000000
##########         Total Energy:           -64.968109
##########        Ligand Charge:             1.000000
##########            Arbitrary:    +999.9990
##########        Ligand Energy:             0.000000

@<TRIPOS>MOLECULE
 ZINC000451895384      none
   49    51     0     0     0



@<TRIPOS>ATOM
      1 C1        -13.5814    13.9814   -12.0001 C.3        1  LIG1  -0.1200
      2 C2        -14.3696    14.1911   -13.2674 C.ar       1  LIG1  -0.0700
      3 C3        -14.3538    15.4235   -13.8934 C.ar       1  LIG1  -0.1000
      4 C4        -15.0752    15.6195   -15.0554 C.ar       1  LIG1  -0.1000
      5 C5        -15.8161    14.5772   -15.5950 C.ar       1  LIG1   0.1200
      6 N1        -16.5476    14.7725   -16.7724 N.am       1  LIG1  -0.6400
      7 C6        -16.1194    15.6596   -17.6923 C.2        1  LIG1   0.5000
      8 O1        -15.1005    16.2887   -17.5000 O.2        1  LIG1  -0.5000
      9 C7        -16.9071    15.8699   -18.9599 C.3        1  LIG1   0.0100
     10 H1        -16.9694    14.9304   -19.5090 H          1  LIG1   0.1600
     11 C8        -16.2095    16.9213   -19.8253 C.3        1  LIG1  -0.1800
     12 N2        -18.2934    16.3427   -18.6162 N.4        1  LIG1  -0.3700
     13 H2        -18.7346    15.6032   -18.0288 H          1  LIG1   0.4300
     14 C9        -18.2590    17.6039   -17.7890 C.3        1  LIG1  -0.0100
     15 C10       -19.6714    17.9711   -17.3627 C.3        1  LIG1  -0.1400
     16 C11       -20.6167    18.0847   -18.5577 C.3        1  LIG1  -0.1200
     17 C12       -20.5938    16.8247   -19.4540 C.3        1  LIG1  -0.1100
     18 C13       -21.3202    15.6483   -18.8045 C.3        1  LIG1  -0.1700
     19 C14       -22.7803    15.9379   -19.0957 C.3        1  LIG1   0.0500
     20 O2        -22.8234    16.7330   -20.2877 O.3        1  LIG1  -0.3600
     21 C15       -21.4773    17.0311   -20.6859 C.3        1  LIG1   0.0600
     22 C16       -19.1508    16.4974   -19.8516 C.3        1  LIG1   0.0000
     23 C17       -15.8299    13.3389   -14.9638 C.ar       1  LIG1  -0.0500
     24 Cl1       -16.7544    12.0316   -15.6345 Cl         1  LIG1  -0.0600
     25 C18       -15.1023    13.1483   -13.8045 C.ar       1  LIG1  -0.0900
     26 H3        -13.0725    14.9070   -11.7314 H          1  LIG1   0.0800
     27 H4        -14.2575    13.6917   -11.1954 H          1  LIG1   0.0800
     28 H5        -12.8444    13.1937   -12.1567 H          1  LIG1   0.0700
     29 H6        -13.7772    16.2344   -13.4734 H          1  LIG1   0.1400
     30 H7        -15.0627    16.5829   -15.5433 H          1  LIG1   0.1500
     31 H8        -17.3625    14.2694   -16.9262 H          1  LIG1   0.4200
     32 H9        -16.7792    17.0733   -20.7421 H          1  LIG1   0.1100
     33 H10       -16.1473    17.8607   -19.2762 H          1  LIG1   0.1000
     34 H11       -15.2051    16.5787   -20.0742 H          1  LIG1   0.0900
     35 H12       -17.6370    17.4233   -16.9174 H          1  LIG1   0.1400
     36 H13       -17.8294    18.3969   -18.3937 H          1  LIG1   0.1300
     37 H14       -20.0554    17.2048   -16.6678 H          1  LIG1   0.0900
     38 H15       -19.6526    18.9329   -16.8223 H          1  LIG1   0.1200
     39 H16       -21.6480    18.2437   -18.2005 H          1  LIG1   0.1000
     40 H17       -20.3356    18.9576   -19.1706 H          1  LIG1   0.0900
     41 H18       -21.0009    14.6962   -19.2561 H          1  LIG1   0.0900
     42 H19       -21.1238    15.6192   -17.7215 H          1  LIG1   0.0900
     43 H20       -23.3498    14.9978   -19.2467 H          1  LIG1   0.1000
     44 H21       -23.2515    16.4888   -18.2558 H          1  LIG1   0.0700
     45 H22       -21.4100    18.0654   -21.0240 H          1  LIG1   0.0800
     46 H23       -21.1676    16.3565   -21.4842 H          1  LIG1   0.0900
     47 H24       -18.7431    17.3018   -20.4571 H          1  LIG1   0.1300
     48 H25       -19.1234    15.5645   -20.4073 H          1  LIG1   0.1300
     49 H26       -15.1124    12.1866   -13.3132 H          1  LIG1   0.1400
@<TRIPOS>BOND
     1    1    2 1
     2    1   26 1
     3    1   27 1
     4    1   28 1
     5    2   25 ar
     6    2    3 ar
     7    3    4 ar
     8    3   29 1
     9    4    5 ar
    10    4   30 1
    11    5    6 1
    12    5   23 ar
    13    6    7 am
    14    6   31 1
    15    7    8 2
    16    7    9 1
    17    9   10 1
    18    9   11 1
    19    9   12 1
    20   11   32 1
    21   11   33 1
    22   11   34 1
    23   12   13 1
    24   12   22 1
    25   12   14 1
    26   14   15 1
    27   14   35 1
    28   14   36 1
    29   15   16 1
    30   15   37 1
    31   15   38 1
    32   16   17 1
    33   16   39 1
    34   16   40 1
    35   17   21 1
    36   17   18 1
    37   17   22 1
    38   18   19 1
    39   18   41 1
    40   18   42 1
    41   19   20 1
    42   19   43 1
    43   19   44 1
    44   20   21 1
    45   21   45 1
    46   21   46 1
    47   22   47 1
    48   22   48 1
    49   23   24 1
    50   23   25 ar
    51   25   49 1
##########                 Name:     ZINC000521570499
##########          Protonation:                 none
##########               SMILES:   CC1=CC=CC(C)=C1NC(=O)CNC(=O)[C@@H](C)[NH2+][C@@H]1CCC[C@@H]2C[C@@H]21
##########            Long Name:   NO_LONG_NAME
##########          FlexRecCode: 1
##########               Number:                 4898
##########   Ligand Source File: /nfs/db/export/3D/EF/ADRO/EFADRO.xadj.db2.gz
##########                 Rank:                    1
##########               Setnum:                   78
##########             Matchnum:                    1
##########                Cloud:                    1
##########        Electrostatic:           -39.760242
##########                 Gist:             0.000000
##########        Van der Waals:           -37.844353
##########  Ligand Polar Desolv:            12.492732
########## Ligand Apolar Desolv:            -5.424192
##########      Internal Energy:             0.000000
##########      Receptor Energy:             0.000000
########## Receptor Desolvation:             0.000000
########## Receptor Hydrophobic:             0.000000
##########         Total Energy:           -70.536057
##########        Ligand Charge:             1.000000
##########            Arbitrary:    +999.9990
##########        Ligand Energy:             0.000000

@<TRIPOS>MOLECULE
 ZINC000521570499      none
   55    57     0     0     0



@<TRIPOS>ATOM
      1 C1        -12.9112    15.4857   -12.7444 C.3        1  LIG1  -0.1100
      2 C2        -13.5805    14.1815   -13.0940 C.ar       1  LIG1  -0.0600
      3 C3        -13.3243    13.0503   -12.3442 C.ar       1  LIG1  -0.1200
      4 C4        -13.9377    11.8530   -12.6646 C.ar       1  LIG1  -0.1000
      5 C5        -14.8095    11.7843   -13.7358 C.ar       1  LIG1  -0.1200
      6 C6        -15.0702    12.9121   -14.4893 C.ar       1  LIG1  -0.0800
      7 C7        -16.0207    12.8364   -15.6563 C.3        1  LIG1  -0.1100
      8 C8        -14.4599    14.1171   -14.1669 C.ar       1  LIG1   0.1200
      9 N1        -14.7223    15.2616   -14.9280 N.am       1  LIG1  -0.6700
     10 C9        -15.9798    15.7383   -15.0167 C.2        1  LIG1   0.5100
     11 O1        -16.8842    15.1751   -14.4369 O.2        1  LIG1  -0.5200
     12 C10       -16.2624    16.9709   -15.8363 C.3        1  LIG1   0.1000
     13 N2        -17.2147    16.6424   -16.9000 N.am       1  LIG1  -0.6900
     14 C11       -17.1782    17.3138   -18.0680 C.2        1  LIG1   0.5100
     15 O2        -16.3572    18.1901   -18.2385 O.2        1  LIG1  -0.5300
     16 C12       -18.1579    16.9760   -19.1622 C.3        1  LIG1   0.0000
     17 H1        -18.3623    17.8677   -19.7549 H          1  LIG1   0.1700
     18 C13       -17.5634    15.8908   -20.0620 C.3        1  LIG1  -0.1800
     19 N3        -19.4083    16.4871   -18.5660 N.4        1  LIG1  -0.4900
     20 H2        -19.2998    15.5188   -18.3040 H          1  LIG1   0.4300
     21 H3        -19.6272    17.0347   -17.7473 H          1  LIG1   0.4300
     22 C14       -20.4979    16.6106   -19.5436 C.3        1  LIG1   0.0600
     23 H4        -20.1284    16.3341   -20.5310 H          1  LIG1   0.1500
     24 C15       -20.9856    18.0592   -19.5749 C.3        1  LIG1  -0.1500
     25 C16       -22.1994    18.1462   -20.5072 C.3        1  LIG1  -0.1100
     26 C17       -23.4048    17.5308   -19.7961 C.3        1  LIG1  -0.1000
     27 C18       -23.0762    16.1126   -19.3350 C.3        1  LIG1  -0.1100
     28 H5        -23.7819    15.3437   -19.6495 H          1  LIG1   0.1200
     29 C19       -22.4790    15.9833   -17.9253 C.3        1  LIG1  -0.1800
     30 C20       -21.6317    15.6757   -19.1520 C.3        1  LIG1  -0.2000
     31 H6        -21.4256    14.6214   -19.3365 H          1  LIG1   0.1300
     32 H7        -12.2621    15.3409   -11.8808 H          1  LIG1   0.0800
     33 H8        -12.3174    15.8280   -13.5920 H          1  LIG1   0.0700
     34 H9        -13.6701    16.2315   -12.5076 H          1  LIG1   0.0600
     35 H10       -12.6440    13.1007   -11.5069 H          1  LIG1   0.1300
     36 H11       -13.7352    10.9697   -12.0772 H          1  LIG1   0.1300
     37 H12       -15.2867    10.8477   -13.9838 H          1  LIG1   0.1300
     38 H13       -16.0992    13.8173   -16.1252 H          1  LIG1   0.0700
     39 H14       -15.6470    12.1151   -16.3831 H          1  LIG1   0.0600
     40 H15       -17.0035    12.5221   -15.3047 H          1  LIG1   0.0700
     41 H16       -13.9991    15.7121   -15.3917 H          1  LIG1   0.4100
     42 H17       -16.6861    17.7441   -15.1955 H          1  LIG1   0.1100
     43 H18       -15.3346    17.3337   -16.2786 H          1  LIG1   0.1100
     44 H19       -17.8714    15.9417   -16.7636 H          1  LIG1   0.4200
     45 H20       -18.2720    15.6464   -20.8534 H          1  LIG1   0.0900
     46 H21       -16.6356    16.2536   -20.5044 H          1  LIG1   0.1000
     47 H22       -17.3589    14.9991   -19.4695 H          1  LIG1   0.1100
     48 H23       -21.2725    18.3705   -18.5705 H          1  LIG1   0.0900
     49 H24       -20.1906    18.7050   -19.9479 H          1  LIG1   0.0900
     50 H25       -22.4066    19.1902   -20.7417 H          1  LIG1   0.0900
     51 H26       -21.9957    17.5953   -21.4255 H          1  LIG1   0.0800
     52 H27       -23.6641    18.1411   -18.9310 H          1  LIG1   0.0800
     53 H28       -24.2518    17.5008   -20.4815 H          1  LIG1   0.0900
     54 H29       -22.2642    16.9038   -17.3826 H          1  LIG1   0.1000
     55 H30       -22.8064    15.1417   -17.3146 H          1  LIG1   0.1100
@<TRIPOS>BOND
     1    1    2 1
     2    1   32 1
     3    1   33 1
     4    1   34 1
     5    2    8 ar
     6    2    3 ar
     7    3    4 ar
     8    3   35 1
     9    4    5 ar
    10    4   36 1
    11    5    6 ar
    12    5   37 1
    13    6    7 1
    14    6    8 ar
    15    7   38 1
    16    7   39 1
    17    7   40 1
    18    8    9 1
    19    9   10 am
    20    9   41 1
    21   10   11 2
    22   10   12 1
    23   12   13 1
    24   12   42 1
    25   12   43 1
    26   13   14 am
    27   13   44 1
    28   14   15 2
    29   14   16 1
    30   16   17 1
    31   16   18 1
    32   16   19 1
    33   18   45 1
    34   18   46 1
    35   18   47 1
    36   19   20 1
    37   19   21 1
    38   19   22 1
    39   22   23 1
    40   22   30 1
    41   22   24 1
    42   24   25 1
    43   24   48 1
    44   24   49 1
    45   25   26 1
    46   25   50 1
    47   25   51 1
    48   26   27 1
    49   26   52 1
    50   26   53 1
    51   27   28 1
    52   27   30 1
    53   27   29 1
    54   29   30 1
    55   29   54 1
    56   29   55 1
    57   30   31 1
##########                 Name:     ZINC000269834111
##########          Protonation:                 none
##########               SMILES:   CC1=CC=C(C)C(NC(=O)[C@H](C)[N@H+]2CCC[C@H]2C[C@@H](C)O)=C1
##########            Long Name:   NO_LONG_NAME
##########          FlexRecCode: 1
##########               Number:                 5372
##########   Ligand Source File: /nfs/db/export/3D/DF/ADRO/DFADRO.xamv.db2.gz
##########                 Rank:                    1
##########               Setnum:                   27
##########             Matchnum:                    1
##########                Cloud:                    1
##########        Electrostatic:           -45.712982
##########                 Gist:             0.000000
##########        Van der Waals:           -26.736320
##########  Ligand Polar Desolv:            12.886349
########## Ligand Apolar Desolv:            -4.401780
##########      Internal Energy:             0.000000
##########      Receptor Energy:             0.000000
########## Receptor Desolvation:             0.000000
########## Receptor Hydrophobic:             0.000000
##########         Total Energy:           -63.964733
##########        Ligand Charge:             1.000000
##########            Arbitrary:    +999.9990
##########        Ligand Energy:             0.000000

@<TRIPOS>MOLECULE
 ZINC000269834111      none
   51    52     0     0     0



@<TRIPOS>ATOM
      1 C1        -12.5262    15.2322   -12.4456 C.3        1  LIG1  -0.1200
      2 C2        -13.5280    14.4568   -13.2619 C.ar       1  LIG1  -0.0700
      3 C3        -13.4429    13.0787   -13.3324 C.ar       1  LIG1  -0.1200
      4 C4        -14.3601    12.3636   -14.0809 C.ar       1  LIG1  -0.0900
      5 C5        -15.3645    13.0245   -14.7601 C.ar       1  LIG1  -0.1100
      6 C6        -16.3637    12.2445   -15.5750 C.3        1  LIG1  -0.1200
      7 C7        -15.4530    14.4089   -14.6909 C.ar       1  LIG1   0.1200
      8 N1        -16.4698    15.0816   -15.3777 N.am       1  LIG1  -0.6400
      9 C8        -16.2627    16.3339   -15.8308 C.2        1  LIG1   0.5000
     10 O1        -15.1948    16.8778   -15.6433 O.2        1  LIG1  -0.5100
     11 C9        -17.3577    17.0584   -16.5703 C.3        1  LIG1   0.0100
     12 H1        -17.0082    18.0504   -16.8565 H          1  LIG1   0.1600
     13 C10       -18.5835    17.1912   -15.6644 C.3        1  LIG1  -0.1900
     14 N2        -17.7192    16.3002   -17.7754 N.4        1  LIG1  -0.3700
     15 H2        -18.3328    15.5387   -17.5271 H          1  LIG1   0.4300
     16 C11       -16.4967    15.7665   -18.4129 C.3        1  LIG1  -0.0100
     17 C12       -16.7745    15.8516   -19.9344 C.3        1  LIG1  -0.1400
     18 C13       -17.5666    17.1818   -20.0344 C.3        1  LIG1  -0.1400
     19 C14       -18.3964    17.1898   -18.7369 C.3        1  LIG1   0.0200
     20 H3        -18.4462    18.2015   -18.3347 H          1  LIG1   0.1500
     21 C15       -19.8082    16.6718   -19.0186 C.3        1  LIG1  -0.1800
     22 C16       -20.6630    17.8056   -19.5885 C.3        1  LIG1   0.1100
     23 H4        -20.2167    18.1666   -20.5151 H          1  LIG1   0.1100
     24 C17       -22.0749    17.2879   -19.8703 C.3        1  LIG1  -0.1900
     25 O2        -20.7278    18.8750   -18.6427 O.3        1  LIG1  -0.5600
     26 C18       -14.5337    15.1235   -13.9345 C.ar       1  LIG1  -0.1300
     27 H5        -11.8149    14.5418   -11.9922 H          1  LIG1   0.0800
     28 H6        -11.9937    15.9303   -13.0916 H          1  LIG1   0.0700
     29 H7        -13.0454    15.7850   -11.6628 H          1  LIG1   0.0700
     30 H8        -12.6584    12.5595   -12.8022 H          1  LIG1   0.1300
     31 H9        -14.2905    11.2872   -14.1345 H          1  LIG1   0.1300
     32 H10       -17.0740    12.9321   -16.0341 H          1  LIG1   0.0800
     33 H11       -15.8421    11.6877   -16.3535 H          1  LIG1   0.0600
     34 H12       -16.8977    11.5495   -14.9270 H          1  LIG1   0.0800
     35 H13       -17.3237    14.6466   -15.5275 H          1  LIG1   0.4200
     36 H14       -19.3756    17.7153   -16.1995 H          1  LIG1   0.1100
     37 H15       -18.9331    16.1993   -15.3783 H          1  LIG1   0.1000
     38 H16       -18.3152    17.7539   -14.7703 H          1  LIG1   0.0900
     39 H17       -15.6337    16.3780   -18.1499 H          1  LIG1   0.1300
     40 H18       -16.3343    14.7309   -18.1142 H          1  LIG1   0.1500
     41 H19       -15.8436    15.9081   -20.4988 H          1  LIG1   0.1200
     42 H20       -17.3812    15.0098   -20.2684 H          1  LIG1   0.1000
     43 H21       -16.8872    18.0337   -20.0613 H          1  LIG1   0.1000
     44 H22       -18.2169    17.1783   -20.9092 H          1  LIG1   0.1200
     45 H23       -19.7589    15.8563   -19.7400 H          1  LIG1   0.1000
     46 H24       -20.2545    16.3108   -18.0920 H          1  LIG1   0.0900
     47 H25       -22.6838    18.0957   -20.2764 H          1  LIG1   0.0600
     48 H26       -22.0256    16.4722   -20.5916 H          1  LIG1   0.0800
     49 H27       -22.5213    16.9269   -18.9437 H          1  LIG1   0.0700
     50 H28       -19.8668    19.2527   -18.4166 H          1  LIG1   0.3800
     51 H29       -14.5999    16.2001   -13.8787 H          1  LIG1   0.1500
@<TRIPOS>BOND
     1    1    2 1
     2    1   27 1
     3    1   28 1
     4    1   29 1
     5    2   26 ar
     6    2    3 ar
     7    3    4 ar
     8    3   30 1
     9    4    5 ar
    10    4   31 1
    11    5    6 1
    12    5    7 ar
    13    6   32 1
    14    6   33 1
    15    6   34 1
    16    7    8 1
    17    7   26 ar
    18    8    9 am
    19    8   35 1
    20    9   10 2
    21    9   11 1
    22   11   12 1
    23   11   13 1
    24   11   14 1
    25   13   36 1
    26   13   37 1
    27   13   38 1
    28   14   15 1
    29   14   19 1
    30   14   16 1
    31   16   17 1
    32   16   39 1
    33   16   40 1
    34   17   18 1
    35   17   41 1
    36   17   42 1
    37   18   19 1
    38   18   43 1
    39   18   44 1
    40   19   20 1
    41   19   21 1
    42   21   22 1
    43   21   45 1
    44   21   46 1
    45   22   23 1
    46   22   24 1
    47   22   25 1
    48   24   47 1
    49   24   48 1
    50   24   49 1
    51   25   50 1
    52   26   51 1
##########                 Name:     ZINC000641276655
##########          Protonation:                 none
##########               SMILES:   COC1=CC=CC([C@@H](CNC2=NC=NC=C2C)[NH+]2CCCC2)=C1
##########            Long Name:   NO_LONG_NAME
##########          FlexRecCode: 1
##########               Number:                  119
##########   Ligand Source File: /nfs/db/export/3D/DE/ADRO/DEADRO.xbzt.db2.gz
##########                 Rank:                    1
##########               Setnum:                   74
##########             Matchnum:                    1
##########                Cloud:                    1
##########        Electrostatic:           -40.834198
##########                 Gist:             0.000000
##########        Van der Waals:           -30.625652
##########  Ligand Polar Desolv:            12.300399
########## Ligand Apolar Desolv:            -4.783778
##########      Internal Energy:             0.000000
##########      Receptor Energy:             0.000000
########## Receptor Desolvation:             0.000000
########## Receptor Hydrophobic:             0.000000
##########         Total Energy:           -63.943233
##########        Ligand Charge:             1.000000
##########            Arbitrary:    +999.9990
##########        Ligand Energy:             0.000000

@<TRIPOS>MOLECULE
 ZINC000641276655      none
   48    50     0     0     0



@<TRIPOS>ATOM
      1 C1        -16.4016    15.0030   -15.1307 C.3        1  LIG1   0.0200
      2 O1        -15.6666    16.2212   -14.9977 O.3        1  LIG1  -0.3100
      3 C2        -15.9177    17.1961   -15.9106 C.ar       1  LIG1   0.1500
      4 C3        -15.2360    18.4022   -15.8443 C.ar       1  LIG1  -0.1900
      5 C4        -15.4927    19.3916   -16.7740 C.ar       1  LIG1  -0.0600
      6 C5        -16.4285    19.1804   -17.7694 C.ar       1  LIG1  -0.1600
      7 C6        -17.1098    17.9790   -17.8374 C.ar       1  LIG1  -0.1000
      8 C7        -18.1296    17.7522   -18.9235 C.3        1  LIG1   0.0700
      9 H1        -18.5837    18.7036   -19.2000 H          1  LIG1   0.1500
     10 C8        -17.4444    17.1395   -20.1466 C.3        1  LIG1   0.1200
     11 N1        -16.7727    18.1944   -20.9096 N.pl3      1  LIG1  -0.7100
     12 C9        -17.4531    18.8628   -21.9144 C.ar       1  LIG1   0.4300
     13 N2        -18.7177    18.5592   -22.1915 N.ar       1  LIG1  -0.5800
     14 C10       -19.3678    19.1929   -23.1466 C.ar       1  LIG1   0.3300
     15 N3        -18.8004    20.1439   -23.8605 N.ar       1  LIG1  -0.5500
     16 C11       -17.5427    20.5029   -23.6435 C.ar       1  LIG1   0.1800
     17 C12       -16.8237    19.8703   -22.6488 C.ar       1  LIG1  -0.2400
     18 C13       -15.3920    20.2495   -22.3703 C.3        1  LIG1  -0.1000
     19 N4        -19.1697    16.8369   -18.4352 N.4        1  LIG1  -0.3900
     20 H2        -18.7608    15.9516   -18.1759 H          1  LIG1   0.4300
     21 C14       -19.8744    17.4356   -17.2729 C.3        1  LIG1   0.0000
     22 C15       -21.2248    16.6766   -17.2476 C.3        1  LIG1  -0.1400
     23 C16       -21.5548    16.5080   -18.7484 C.3        1  LIG1  -0.1400
     24 C17       -20.2021    16.6367   -19.4751 C.3        1  LIG1  -0.0100
     25 C18       -16.8524    16.9843   -16.9141 C.ar       1  LIG1  -0.1300
     26 H3        -16.1060    14.3123   -14.3410 H          1  LIG1   0.0600
     27 H4        -17.4685    15.2116   -15.0506 H          1  LIG1   0.0600
     28 H5        -16.1908    14.5557   -16.1021 H          1  LIG1   0.1100
     29 H6        -14.5053    18.5680   -15.0664 H          1  LIG1   0.1400
     30 H7        -14.9620    20.3308   -16.7228 H          1  LIG1   0.1400
     31 H8        -16.6279    19.9551   -18.4949 H          1  LIG1   0.1200
     32 H9        -16.7097    16.4031   -19.8207 H          1  LIG1   0.0900
     33 H10       -18.1903    16.6545   -20.7761 H          1  LIG1   0.0900
     34 H11       -15.8516    18.4250   -20.7113 H          1  LIG1   0.4200
     35 H12       -20.3940    18.9251   -23.3502 H          1  LIG1   0.2000
     36 H13       -17.0873    21.2835   -24.2349 H          1  LIG1   0.1700
     37 H14       -15.0901    21.0500   -23.0457 H          1  LIG1   0.0800
     38 H15       -15.3004    20.5903   -21.3390 H          1  LIG1   0.0600
     39 H16       -14.7499    19.3823   -22.5247 H          1  LIG1   0.0800
     40 H17       -19.3170    17.2599   -16.3528 H          1  LIG1   0.1400
     41 H18       -20.0355    18.5024   -17.4285 H          1  LIG1   0.1300
     42 H19       -21.1125    15.7053   -16.7659 H          1  LIG1   0.1000
     43 H20       -21.9912    17.2695   -16.7484 H          1  LIG1   0.1200
     44 H21       -21.9899    15.5256   -18.9321 H          1  LIG1   0.1100
     45 H22       -22.2372    17.2923   -19.0762 H          1  LIG1   0.1100
     46 H23       -20.2219    17.4943   -20.1475 H          1  LIG1   0.1300
     47 H24       -19.9942    15.7260   -20.0367 H          1  LIG1   0.1400
     48 H25       -17.3845    16.0462   -16.9678 H          1  LIG1   0.1400
@<TRIPOS>BOND
     1    1    2 1
     2    1   26 1
     3    1   27 1
     4    1   28 1
     5    2    3 1
     6    3   25 ar
     7    3    4 ar
     8    4    5 ar
     9    4   29 1
    10    5    6 ar
    11    5   30 1
    12    6    7 ar
    13    6   31 1
    14    7    8 1
    15    7   25 ar
    16    8    9 1
    17    8   10 1
    18    8   19 1
    19   10   11 1
    20   10   32 1
    21   10   33 1
    22   11   12 1
    23   11   34 1
    24   12   17 ar
    25   12   13 ar
    26   13   14 ar
    27   14   15 ar
    28   14   35 1
    29   15   16 ar
    30   16   17 ar
    31   16   36 1
    32   17   18 1
    33   18   37 1
    34   18   38 1
    35   18   39 1
    36   19   20 1
    37   19   24 1
    38   19   21 1
    39   21   22 1
    40   21   40 1
    41   21   41 1
    42   22   23 1
    43   22   42 1
    44   22   43 1
    45   23   24 1
    46   23   44 1
    47   23   45 1
    48   24   46 1
    49   24   47 1
    50   25   48 1
##########                 Name:     ZINC000177973904
##########          Protonation:                 none
##########               SMILES:   CC1=CC(N2C(C)=CC(C(=O)C[N@@H+]3CC[C@](C)(O)C3)=C2C)=NO1
##########            Long Name:   NO_LONG_NAME
##########          FlexRecCode: 1
##########               Number:                  148
##########   Ligand Source File: /nfs/db/export/3D/DE/ADMO/DEADMO.xatn.db2.gz
##########                 Rank:                    1
##########               Setnum:                  482
##########             Matchnum:                    1
##########                Cloud:                    1
##########        Electrostatic:           -41.605968
##########                 Gist:             0.000000
##########        Van der Waals:           -30.983898
##########  Ligand Polar Desolv:            13.855909
########## Ligand Apolar Desolv:            -5.384747
##########      Internal Energy:             0.000000
##########      Receptor Energy:             0.000000
########## Receptor Desolvation:             0.000000
########## Receptor Hydrophobic:             0.000000
##########         Total Energy:           -64.118706
##########        Ligand Charge:             1.000000
##########            Arbitrary:    +999.9990
##########        Ligand Energy:             0.000000

@<TRIPOS>MOLECULE
 ZINC000177973904      none
   47    49     0     0     0



@<TRIPOS>ATOM
      1 C1        -14.5154    10.5459   -12.1389 C.3        1  LIG1  -0.0800
      2 C2        -14.3380    11.9378   -12.6887 C.2        1  LIG1   0.0100
      3 C3        -14.9176    12.4484   -13.7992 C.2        1  LIG1  -0.2300
      4 C4        -14.4220    13.7771   -13.8641 C.2        1  LIG1   0.2100
      5 N1        -14.7199    14.7378   -14.8360 N.pl3      1  LIG1  -0.3500
      6 C5        -14.2121    16.0076   -14.8607 C.2        1  LIG1   0.0400
      7 C6        -13.2522    16.5842   -13.8521 C.3        1  LIG1  -0.1000
      8 C7        -14.7048    16.6583   -15.9272 C.2        1  LIG1  -0.1500
      9 C8        -15.5907    15.7117   -16.6189 C.2        1  LIG1  -0.2800
     10 C9        -16.3614    15.9562   -17.8400 C.2        1  LIG1   0.4300
     11 O1        -16.1672    15.2767   -18.8263 O.2        1  LIG1  -0.4600
     12 C10       -17.3959    17.0516   -17.8715 C.3        1  LIG1  -0.0400
     13 N2        -18.7130    16.4730   -18.1690 N.4        1  LIG1  -0.3800
     14 H1        -18.8274    15.5978   -17.6800 H          1  LIG1   0.4300
     15 C11       -18.8626    16.2656   -19.6321 C.3        1  LIG1   0.0000
     16 C12       -20.3988    16.2131   -19.8273 C.3        1  LIG1  -0.1700
     17 C13       -20.9114    17.2698   -18.8222 C.3        1  LIG1   0.1200
     18 C14       -22.1946    16.7819   -18.1468 C.3        1  LIG1  -0.1900
     19 O2        -21.1434    18.5140   -19.4859 O.3        1  LIG1  -0.5500
     20 C15       -19.7839    17.4170   -17.7823 C.3        1  LIG1   0.0000
     21 C16       -15.5437    14.5420   -15.8848 C.2        1  LIG1   0.1600
     22 C17       -16.2906    13.2709   -16.1975 C.3        1  LIG1  -0.1100
     23 N3        -13.6318    13.9228   -12.8337 N.2        1  LIG1  -0.3400
     24 O3        -13.5795    12.9138   -12.1695 O.3        1  LIG1   0.1300
     25 H2        -15.1932     9.9848   -12.7822 H          1  LIG1   0.0900
     26 H3        -13.5488    10.0433   -12.1034 H          1  LIG1   0.1000
     27 H4        -14.9324    10.6028   -11.1335 H          1  LIG1   0.1000
     28 H5        -15.5991    11.9587   -14.4791 H          1  LIG1   0.1800
     29 H6        -13.0182    17.6144   -14.1211 H          1  LIG1   0.0800
     30 H7        -13.7083    16.5617   -12.8624 H          1  LIG1   0.0900
     31 H8        -12.3360    15.9938   -13.8435 H          1  LIG1   0.0800
     32 H9        -14.4921    17.6762   -16.2186 H          1  LIG1   0.1600
     33 H10       -17.4281    17.5490   -16.9020 H          1  LIG1   0.1600
     34 H11       -17.1346    17.7759   -18.6429 H          1  LIG1   0.1600
     35 H12       -18.4329    17.1010   -20.1850 H          1  LIG1   0.1300
     36 H13       -18.4037    15.3249   -19.9362 H          1  LIG1   0.1500
     37 H14       -20.6676    16.4884   -20.8472 H          1  LIG1   0.1200
     38 H15       -20.7856    15.2249   -19.5787 H          1  LIG1   0.1100
     39 H16       -22.5437    17.5365   -17.4419 H          1  LIG1   0.0800
     40 H17       -22.9603    16.6095   -18.9032 H          1  LIG1   0.0800
     41 H18       -21.9941    15.8523   -17.6143 H          1  LIG1   0.0800
     42 H19       -20.3568    18.8884   -19.9057 H          1  LIG1   0.4000
     43 H20       -20.1595    17.1688   -16.7897 H          1  LIG1   0.1500
     44 H21       -19.4000    18.4371   -17.7926 H          1  LIG1   0.1500
     45 H22       -16.8773    13.4084   -17.1059 H          1  LIG1   0.0900
     46 H23       -15.5792    12.4582   -16.3438 H          1  LIG1   0.0800
     47 H24       -16.9556    13.0271   -15.3690 H          1  LIG1   0.1000
@<TRIPOS>BOND
     1    1    2 1
     2    1   25 1
     3    1   26 1
     4    1   27 1
     5    2   24 1
     6    2    3 2
     7    3    4 1
     8    3   28 1
     9    4    5 1
    10    4   23 2
    11    5   21 1
    12    5    6 1
    13    6    7 1
    14    6    8 2
    15    7   29 1
    16    7   30 1
    17    7   31 1
    18    8    9 1
    19    8   32 1
    20    9   10 1
    21    9   21 2
    22   10   11 2
    23   10   12 1
    24   12   13 1
    25   12   33 1
    26   12   34 1
    27   13   14 1
    28   13   20 1
    29   13   15 1
    30   15   16 1
    31   15   35 1
    32   15   36 1
    33   16   17 1
    34   16   37 1
    35   16   38 1
    36   17   18 1
    37   17   19 1
    38   17   20 1
    39   18   39 1
    40   18   40 1
    41   18   41 1
    42   19   42 1
    43   20   43 1
    44   20   44 1
    45   21   22 1
    46   22   45 1
    47   22   46 1
    48   22   47 1
    49   23   24 1
##########                 Name:     ZINC000525237972
##########          Protonation:                 none
##########               SMILES:   C[C@H](C(=O)NC1=C2C=CC=CC2=C(O)C=C1)[NH+]1CCCCCC1
##########            Long Name:   NO_LONG_NAME
##########          FlexRecCode: 1
##########               Number:                 9841
##########   Ligand Source File: /nfs/db/export/3D/DH/ADRO/DHADRO.xdr.db2.gz
##########                 Rank:                    1
##########               Setnum:                   97
##########             Matchnum:                    1
##########                Cloud:                    1
##########        Electrostatic:           -45.362301
##########                 Gist:             0.000000
##########        Van der Waals:           -32.072014
##########  Ligand Polar Desolv:            14.190532
########## Ligand Apolar Desolv:            -4.077991
##########      Internal Energy:             0.000000
##########      Receptor Energy:             0.000000
########## Receptor Desolvation:             0.000000
########## Receptor Hydrophobic:             0.000000
##########         Total Energy:           -67.321770
##########        Ligand Charge:             1.000000
##########            Arbitrary:    +999.9990
##########        Ligand Energy:             0.000000

@<TRIPOS>MOLECULE
 ZINC000525237972      none
   48    50     0     0     0



@<TRIPOS>ATOM
      1 C1        -16.3718    16.8042   -19.4008 C.3        1  LIG1  -0.1800
      2 C2        -17.1895    17.2336   -18.1811 C.3        1  LIG1   0.0000
      3 H1        -17.4032    18.3006   -18.2442 H          1  LIG1   0.1600
      4 C3        -16.4050    16.9517   -16.9257 C.2        1  LIG1   0.5000
      5 O1        -16.1142    17.8595   -16.1755 O.2        1  LIG1  -0.5000
      6 N1        -16.0264    15.6909   -16.6365 N.am       1  LIG1  -0.6300
      7 C4        -15.2982    15.4293   -15.4713 C.ar       1  LIG1   0.1100
      8 C5        -15.4200    14.1819   -14.8243 C.ar       1  LIG1  -0.0400
      9 C6        -16.2661    13.1811   -15.3286 C.ar       1  LIG1  -0.1300
     10 C7        -16.3599    11.9877   -14.6801 C.ar       1  LIG1  -0.0900
     11 C8        -15.6273    11.7428   -13.5203 C.ar       1  LIG1  -0.1100
     12 C9        -14.7977    12.6899   -13.0029 C.ar       1  LIG1  -0.0900
     13 C10       -14.6751    13.9331   -13.6454 C.ar       1  LIG1  -0.0600
     14 C11       -13.8252    14.9360   -13.1376 C.ar       1  LIG1   0.1300
     15 O2        -13.1048    14.7119   -12.0072 O.3        1  LIG1  -0.4900
     16 C12       -13.7276    16.1429   -13.7912 C.ar       1  LIG1  -0.1300
     17 C13       -14.4541    16.3866   -14.9529 C.ar       1  LIG1  -0.1000
     18 N2        -18.4518    16.4827   -18.1486 N.4        1  LIG1  -0.3700
     19 H2        -18.2707    15.5665   -17.7668 H          1  LIG1   0.4300
     20 C14       -19.3973    17.1874   -17.2566 C.3        1  LIG1  -0.0100
     21 C15       -20.0454    18.3785   -17.9085 C.3        1  LIG1  -0.1400
     22 C16       -21.3983    17.9289   -18.5025 C.3        1  LIG1  -0.1300
     23 C17       -21.2353    17.2177   -19.7641 C.3        1  LIG1  -0.1300
     24 C18       -20.3937    15.9327   -19.6041 C.3        1  LIG1  -0.1400
     25 C19       -18.9444    16.3277   -19.5342 C.3        1  LIG1  -0.0100
     26 H3        -16.1582    15.7371   -19.3378 H          1  LIG1   0.1000
     27 H4        -16.9393    17.0081   -20.3089 H          1  LIG1   0.1100
     28 H5        -15.4353    17.3613   -19.4250 H          1  LIG1   0.0900
     29 H6        -16.2589    14.9651   -17.2364 H          1  LIG1   0.4200
     30 H7        -16.8401    13.3574   -16.2264 H          1  LIG1   0.1200
     31 H8        -17.0117    11.2199   -15.0701 H          1  LIG1   0.1300
     32 H9        -15.7193    10.7877   -13.0246 H          1  LIG1   0.1300
     33 H10       -14.2365    12.4865   -12.1029 H          1  LIG1   0.1400
     34 H11       -13.2404    13.8355   -11.6216 H          1  LIG1   0.4000
     35 H12       -13.0755    16.9098   -13.3998 H          1  LIG1   0.1400
     36 H13       -14.3616    17.3411   -15.4494 H          1  LIG1   0.1600
     37 H14       -20.1757    16.4892   -16.9489 H          1  LIG1   0.1300
     38 H15       -18.8594    17.5224   -16.3698 H          1  LIG1   0.1300
     39 H16       -20.2115    19.1589   -17.1658 H          1  LIG1   0.1100
     40 H17       -19.4030    18.7575   -18.7032 H          1  LIG1   0.0800
     41 H18       -21.8978    17.2737   -17.7889 H          1  LIG1   0.0800
     42 H19       -22.0211    18.8077   -18.6695 H          1  LIG1   0.0900
     43 H20       -22.2195    16.9504   -20.1493 H          1  LIG1   0.0900
     44 H21       -20.7436    17.8758   -20.4805 H          1  LIG1   0.0700
     45 H22       -20.6797    15.4181   -18.6867 H          1  LIG1   0.0900
     46 H23       -20.5568    15.2777   -20.4598 H          1  LIG1   0.1100
     47 H24       -18.8121    17.2714   -20.0632 H          1  LIG1   0.1300
     48 H25       -18.3480    15.5629   -20.0318 H          1  LIG1   0.1300
@<TRIPOS>BOND
     1    1    2 1
     2    1   26 1
     3    1   27 1
     4    1   28 1
     5    2    3 1
     6    2    4 1
     7    2   18 1
     8    4    5 2
     9    4    6 am
    10    6    7 1
    11    6   29 1
    12    7   17 ar
    13    7    8 ar
    14    8   13 ar
    15    8    9 ar
    16    9   10 ar
    17    9   30 1
    18   10   11 ar
    19   10   31 1
    20   11   12 ar
    21   11   32 1
    22   12   13 ar
    23   12   33 1
    24   13   14 ar
    25   14   15 1
    26   14   16 ar
    27   15   34 1
    28   16   17 ar
    29   16   35 1
    30   17   36 1
    31   18   19 1
    32   18   25 1
    33   18   20 1
    34   20   21 1
    35   20   37 1
    36   20   38 1
    37   21   22 1
    38   21   39 1
    39   21   40 1
    40   22   23 1
    41   22   41 1
    42   22   42 1
    43   23   24 1
    44   23   43 1
    45   23   44 1
    46   24   25 1
    47   24   45 1
    48   24   46 1
    49   25   47 1
    50   25   48 1
##########                 Name:     ZINC000429250556
##########          Protonation:                 none
##########               SMILES:   CC1=CC=C(C)C(NC(=O)C[NH2+]C(C)(C)C2=CC=CC=C2F)=C1
##########            Long Name:   NO_LONG_NAME
##########          FlexRecCode: 1
##########               Number:                13775
##########   Ligand Source File: /nfs/db/export/3D/DH/ADMO/DHADMO.xaz.db2.gz
##########                 Rank:                    1
##########               Setnum:                   24
##########             Matchnum:                    1
##########                Cloud:                    1
##########        Electrostatic:           -42.928947
##########                 Gist:             0.000000
##########        Van der Waals:           -30.253899
##########  Ligand Polar Desolv:            15.201416
########## Ligand Apolar Desolv:            -5.970445
##########      Internal Energy:             0.000000
##########      Receptor Energy:             0.000000
########## Receptor Desolvation:             0.000000
########## Receptor Hydrophobic:             0.000000
##########         Total Energy:           -63.951874
##########        Ligand Charge:             1.000000
##########            Arbitrary:    +999.9990
##########        Ligand Energy:             0.000000

@<TRIPOS>MOLECULE
 ZINC000429250556      none
   47    48     0     0     0



@<TRIPOS>ATOM
      1 C1        -13.8438    14.4870   -11.9803 C.3        1  LIG1  -0.1200
      2 C2        -14.5986    13.7655   -13.0668 C.ar       1  LIG1  -0.0700
      3 C3        -14.9516    12.4393   -12.8988 C.ar       1  LIG1  -0.1200
      4 C4        -15.6440    11.7734   -13.8938 C.ar       1  LIG1  -0.0900
      5 C5        -15.9852    12.4318   -15.0587 C.ar       1  LIG1  -0.1100
      6 C6        -16.7401    11.7056   -16.1421 C.3        1  LIG1  -0.1200
      7 C7        -15.6325    13.7642   -15.2305 C.ar       1  LIG1   0.1200
      8 N1        -15.9773    14.4344   -16.4094 N.am       1  LIG1  -0.6400
      9 C8        -16.2075    15.7621   -16.3870 C.2        1  LIG1   0.5000
     10 O1        -16.1161    16.3760   -15.3450 O.2        1  LIG1  -0.5100
     11 C9        -16.5789    16.4839   -17.6567 C.3        1  LIG1  -0.0400
     12 N2        -18.0397    16.4817   -17.8119 N.4        1  LIG1  -0.4900
     13 H1        -18.3716    15.5300   -17.8566 H          1  LIG1   0.4400
     14 H2        -18.4624    16.9487   -17.0237 H          1  LIG1   0.4400
     15 C10       -18.4016    17.1852   -19.0496 C.3        1  LIG1   0.1200
     16 C11       -17.8981    18.6284   -18.9820 C.3        1  LIG1  -0.1800
     17 C12       -17.7609    16.4770   -20.2449 C.3        1  LIG1  -0.1800
     18 C13       -19.9003    17.1831   -19.2088 C.ar       1  LIG1  -0.1600
     19 C14       -20.6955    16.5736   -18.2572 C.ar       1  LIG1  -0.1100
     20 C15       -22.0703    16.5714   -18.4029 C.ar       1  LIG1  -0.1100
     21 C16       -22.6510    17.1782   -19.5007 C.ar       1  LIG1  -0.0700
     22 C17       -21.8576    17.7881   -20.4541 C.ar       1  LIG1  -0.1300
     23 C18       -20.4812    17.7966   -20.3058 C.ar       1  LIG1   0.1300
     24 F1        -19.7046    18.3924   -21.2371 F          1  LIG1  -0.1300
     25 C19       -14.9420    14.4314   -14.2274 C.ar       1  LIG1  -0.1200
     26 H3        -13.6637    13.8055   -11.1489 H          1  LIG1   0.0800
     27 H4        -12.8907    14.8407   -12.3733 H          1  LIG1   0.0700
     28 H5        -14.4312    15.3369   -11.6326 H          1  LIG1   0.0700
     29 H6        -14.6858    11.9221   -11.9886 H          1  LIG1   0.1300
     30 H7        -15.9176    10.7373   -13.7597 H          1  LIG1   0.1300
     31 H8        -16.9179    12.3828   -16.9776 H          1  LIG1   0.0800
     32 H9        -16.1539    10.8528   -16.4843 H          1  LIG1   0.0600
     33 H10       -17.6944    11.3561   -15.7483 H          1  LIG1   0.0800
     34 H11       -16.0505    13.9434   -17.2428 H          1  LIG1   0.4200
     35 H12       -16.2202    17.5122   -17.6084 H          1  LIG1   0.1700
     36 H13       -16.1223    15.9796   -18.5083 H          1  LIG1   0.1700
     37 H14       -18.1668    19.1503   -19.9004 H          1  LIG1   0.0900
     38 H15       -18.3547    19.1330   -18.1305 H          1  LIG1   0.1200
     39 H16       -16.8142    18.6300   -18.8669 H          1  LIG1   0.0900
     40 H17       -18.0294    16.9990   -21.1633 H          1  LIG1   0.0900
     41 H18       -16.6770    16.4783   -20.1297 H          1  LIG1   0.1200
     42 H19       -18.1199    15.4489   -20.2931 H          1  LIG1   0.0900
     43 H20       -20.2428    16.0986   -17.3994 H          1  LIG1   0.1300
     44 H21       -22.6911    16.0949   -17.6586 H          1  LIG1   0.1500
     45 H22       -23.7251    17.1756   -19.6137 H          1  LIG1   0.1500
     46 H23       -22.3115    18.2616   -21.3121 H          1  LIG1   0.1500
     47 H24       -14.6663    15.4673   -14.3579 H          1  LIG1   0.1400
@<TRIPOS>BOND
     1    1    2 1
     2    1   26 1
     3    1   27 1
     4    1   28 1
     5    2   25 ar
     6    2    3 ar
     7    3    4 ar
     8    3   29 1
     9    4    5 ar
    10    4   30 1
    11    5    6 1
    12    5    7 ar
    13    6   31 1
    14    6   32 1
    15    6   33 1
    16    7    8 1
    17    7   25 ar
    18    8    9 am
    19    8   34 1
    20    9   10 2
    21    9   11 1
    22   11   12 1
    23   11   35 1
    24   11   36 1
    25   12   13 1
    26   12   14 1
    27   12   15 1
    28   15   16 1
    29   15   17 1
    30   15   18 1
    31   16   37 1
    32   16   38 1
    33   16   39 1
    34   17   40 1
    35   17   41 1
    36   17   42 1
    37   18   23 ar
    38   18   19 ar
    39   19   20 ar
    40   19   43 1
    41   20   21 ar
    42   20   44 1
    43   21   22 ar
    44   21   45 1
    45   22   23 ar
    46   22   46 1
    47   23   24 1
    48   25   47 1
##########                 Name:     ZINC000112857579
##########          Protonation:                 none
##########               SMILES:   CC(C)[C@@H](C(=O)N[C@H](C)c1nc2ccccc2[nH]1)[NH+]1CCCCC1
##########            Long Name:   NO_LONG_NAME
##########          FlexRecCode: 1
##########               Number:                 3567
##########   Ligand Source File: /nfs/db/export/3D/EG/ADRO/EGADRO.xbpi.db2.gz
##########                 Rank:                    1
##########               Setnum:                    5
##########             Matchnum:                    1
##########                Cloud:                    1
##########        Electrostatic:           -37.026825
##########                 Gist:             0.000000
##########        Van der Waals:           -35.556267
##########  Ligand Polar Desolv:             9.983222
########## Ligand Apolar Desolv:            -5.107097
##########      Internal Energy:             0.000000
##########      Receptor Energy:             0.000000
########## Receptor Desolvation:             0.000000
########## Receptor Hydrophobic:             0.000000
##########         Total Energy:           -67.706970
##########        Ligand Charge:             1.000000
##########            Arbitrary:    +999.9990
##########        Ligand Energy:             0.000000

@<TRIPOS>MOLECULE
 ZINC000112857579      none
   53    55     0     0     0



@<TRIPOS>ATOM
      1 C1        -17.2599    18.9237   -19.8713 C.3        1  LIG1  -0.1700
      2 C2        -17.3108    17.4077   -20.0714 C.3        1  LIG1  -0.1100
      3 C3        -15.9046    16.8252   -19.9160 C.3        1  LIG1  -0.1700
      4 C4        -18.2387    16.7861   -19.0257 C.3        1  LIG1   0.0100
      5 H1        -18.2749    15.7060   -19.1683 H          1  LIG1   0.1600
      6 C5        -17.7174    17.0932   -17.6455 C.2        1  LIG1   0.5200
      7 O1        -18.0775    18.0990   -17.0713 O.2        1  LIG1  -0.5200
      8 N1        -16.8511    16.2503   -17.0493 N.am       1  LIG1  -0.6900
      9 C6        -16.3443    16.5490   -15.7075 C.3        1  LIG1   0.2300
     10 H2        -17.1084    17.0811   -15.1407 H          1  LIG1   0.1100
     11 C7        -15.0916    17.4206   -15.8178 C.3        1  LIG1  -0.1700
     12 C8        -16.0005    15.2623   -15.0025 C.2        1  LIG1   0.2600
     13 N2        -15.0699    15.1311   -14.1028 N.2        1  LIG1  -0.4800
     14 C9        -15.0270    13.8430   -13.6749 C.ar       1  LIG1   0.0400
     15 C10       -14.2396    13.1634   -12.7422 C.ar       1  LIG1  -0.0600
     16 C11       -14.4401    11.8292   -12.5255 C.ar       1  LIG1  -0.1200
     17 C12       -15.4201    11.1383   -13.2233 C.ar       1  LIG1  -0.0900
     18 C13       -16.2088    11.7885   -14.1488 C.ar       1  LIG1  -0.1100
     19 C14       -16.0199    13.1437   -14.3821 C.ar       1  LIG1   0.0600
     20 N3        -16.6218    14.0700   -15.2100 N.pl3      1  LIG1  -0.5900
     21 N4        -19.5888    17.3451   -19.1749 N.4        1  LIG1  -0.3600
     22 H3        -19.5544    18.3449   -19.0428 H          1  LIG1   0.4200
     23 C15       -20.4769    16.7504   -18.1690 C.3        1  LIG1  -0.0300
     24 C16       -21.8645    17.3883   -18.2670 C.3        1  LIG1  -0.1400
     25 C17       -22.4365    17.1402   -19.6657 C.3        1  LIG1  -0.1400
     26 C18       -21.4658    17.6991   -20.7100 C.3        1  LIG1  -0.1400
     27 C19       -20.0938    17.0482   -20.5208 C.3        1  LIG1  -0.0300
     28 H4        -18.2618    19.3386   -19.9818 H          1  LIG1   0.0900
     29 H5        -16.8827    19.1461   -18.8731 H          1  LIG1   0.0700
     30 H6        -16.5991    19.3665   -20.6164 H          1  LIG1   0.0700
     31 H7        -17.6878    17.1854   -21.0697 H          1  LIG1   0.1000
     32 H8        -15.9409    15.7452   -20.0587 H          1  LIG1   0.0800
     33 H9        -15.2436    17.2680   -20.6610 H          1  LIG1   0.0600
     34 H10       -15.5275    17.0474   -18.9177 H          1  LIG1   0.0900
     35 H11       -16.5630    15.4459   -17.5085 H          1  LIG1   0.4200
     36 H12       -14.7145    17.6428   -14.8195 H          1  LIG1   0.0800
     37 H13       -14.3277    16.8888   -16.3847 H          1  LIG1   0.0800
     38 H14       -15.3403    18.3513   -16.3276 H          1  LIG1   0.0700
     39 H15       -13.4737    13.6914   -12.1937 H          1  LIG1   0.1300
     40 H16       -13.8292    11.3072   -11.8039 H          1  LIG1   0.1400
     41 H17       -15.5662    10.0839   -13.0405 H          1  LIG1   0.1400
     42 H18       -16.9699    11.2459   -14.6899 H          1  LIG1   0.1300
     43 H19       -17.3518    13.9017   -15.8262 H          1  LIG1   0.4300
     44 H20       -20.5575    15.6777   -18.3448 H          1  LIG1   0.1600
     45 H21       -20.0669    16.9249   -17.1743 H          1  LIG1   0.1300
     46 H22       -22.5228    16.9440   -17.5205 H          1  LIG1   0.1100
     47 H23       -21.7851    18.4609   -18.0911 H          1  LIG1   0.0800
     48 H24       -22.5639    16.0692   -19.8228 H          1  LIG1   0.0800
     49 H25       -23.4003    17.6408   -19.7594 H          1  LIG1   0.0900
     50 H26       -21.8392    17.4771   -21.7098 H          1  LIG1   0.1100
     51 H27       -21.3782    18.7783   -20.5848 H          1  LIG1   0.0900
     52 H28       -19.3994    17.4430   -21.2625 H          1  LIG1   0.1200
     53 H29       -20.1835    15.9692   -20.6468 H          1  LIG1   0.1500
@<TRIPOS>BOND
     1    1    2 1
     2    1   28 1
     3    1   29 1
     4    1   30 1
     5    2    3 1
     6    2    4 1
     7    2   31 1
     8    3   32 1
     9    3   33 1
    10    3   34 1
    11    4    5 1
    12    4    6 1
    13    4   21 1
    14    6    7 2
    15    6    8 am
    16    8    9 1
    17    8   35 1
    18    9   10 1
    19    9   11 1
    20    9   12 1
    21   11   36 1
    22   11   37 1
    23   11   38 1
    24   12   20 1
    25   12   13 2
    26   13   14 1
    27   14   19 ar
    28   14   15 ar
    29   15   16 ar
    30   15   39 1
    31   16   17 ar
    32   16   40 1
    33   17   18 ar
    34   17   41 1
    35   18   19 ar
    36   18   42 1
    37   19   20 1
    38   20   43 1
    39   21   22 1
    40   21   27 1
    41   21   23 1
    42   23   24 1
    43   23   44 1
    44   23   45 1
    45   24   25 1
    46   24   46 1
    47   24   47 1
    48   25   26 1
    49   25   48 1
    50   25   49 1
    51   26   27 1
    52   26   50 1
    53   26   51 1
    54   27   52 1
    55   27   53 1
##########                 Name:     ZINC000610680867
##########          Protonation:                 none
##########               SMILES:   CCC1=CC=CC=C1NC(=O)C[N@H+](C)CCN1C(C)=NC=C1[N+](=O)[O-]
##########            Long Name:   NO_LONG_NAME
##########          FlexRecCode: 1
##########               Number:                 5408
##########   Ligand Source File: /nfs/db/export/3D/EE/BDMO/EEBDMO.xac.db2.gz
##########                 Rank:                    1
##########               Setnum:                  141
##########             Matchnum:                    1
##########                Cloud:                    1
##########        Electrostatic:           -48.612560
##########                 Gist:             0.000000
##########        Van der Waals:           -34.854321
##########  Ligand Polar Desolv:            23.733150
########## Ligand Apolar Desolv:            -6.611064
##########      Internal Energy:             0.000000
##########      Receptor Energy:             0.000000
########## Receptor Desolvation:             0.000000
########## Receptor Hydrophobic:             0.000000
##########         Total Energy:           -66.344795
##########        Ligand Charge:             1.000000
##########            Arbitrary:    +999.9990
##########        Ligand Energy:             0.000000

@<TRIPOS>MOLECULE
 ZINC000610680867      none
   49    50     0     0     0



@<TRIPOS>ATOM
      1 C1        -16.2401    11.6794   -16.7924 C.3        1  LIG1  -0.1500
      2 C2        -16.8163    11.8588   -15.3864 C.3        1  LIG1  -0.0900
      3 C3        -15.8254    12.6024   -14.5286 C.ar       1  LIG1  -0.0900
      4 C4        -14.8767    11.9056   -13.8062 C.ar       1  LIG1  -0.1000
      5 C5        -13.9673    12.5872   -13.0182 C.ar       1  LIG1  -0.1100
      6 C6        -14.0040    13.9677   -12.9513 C.ar       1  LIG1  -0.1100
      7 C7        -14.9501    14.6706   -13.6719 C.ar       1  LIG1  -0.1100
      8 C8        -15.8613    13.9895   -14.4681 C.ar       1  LIG1   0.1100
      9 N1        -16.8204    14.6986   -15.1996 N.am       1  LIG1  -0.6400
     10 C9        -16.5444    15.9393   -15.6479 C.2        1  LIG1   0.5000
     11 O1        -15.4647    16.4413   -15.4172 O.2        1  LIG1  -0.5100
     12 C10       -17.5776    16.7029   -16.4357 C.3        1  LIG1  -0.0300
     13 N2        -17.4132    16.4151   -17.8668 N.4        1  LIG1  -0.3700
     14 H1        -17.5318    15.4259   -18.0268 H          1  LIG1   0.4300
     15 C11       -16.0692    16.8232   -18.2970 C.3        1  LIG1  -0.0700
     16 C12       -18.4203    17.1595   -18.6348 C.3        1  LIG1  -0.0200
     17 C13       -18.5924    16.5133   -20.0109 C.3        1  LIG1   0.0700
     18 N3        -19.5967    17.2555   -20.7768 N.pl3      1  LIG1  -0.4500
     19 C14       -20.9268    17.0220   -20.7917 C.2        1  LIG1   0.2900
     20 C15       -21.6379    15.9433   -20.0159 C.3        1  LIG1  -0.0900
     21 N4        -21.4942    17.8853   -21.5890 N.2        1  LIG1  -0.4600
     22 C16       -20.5563    18.6926   -22.1065 C.2        1  LIG1   0.1400
     23 C17       -19.3631    18.3190   -21.6064 C.2        1  LIG1  -0.0100
     24 N5        -18.0498    18.9340   -21.9040 N.pl3      1  LIG1   0.0700
     25 O2        -17.9789    19.8769   -22.6719 O.2        1  LIG1  -0.1100
     26 O3        -17.0402    18.4970   -21.3812 O.2        1  LIG1  -0.1900
     27 H2        -16.9570    11.1416   -17.4130 H          1  LIG1   0.0700
     28 H3        -16.0415    12.6572   -17.2313 H          1  LIG1   0.0700
     29 H4        -15.3115    11.1115   -16.7349 H          1  LIG1   0.0500
     30 H5        -17.7449    12.4267   -15.4442 H          1  LIG1   0.0700
     31 H6        -17.0150    10.8809   -14.9478 H          1  LIG1   0.0800
     32 H7        -14.8455    10.8273   -13.8563 H          1  LIG1   0.1300
     33 H8        -13.2269    12.0401   -12.4536 H          1  LIG1   0.1300
     34 H9        -13.2928    14.4971   -12.3349 H          1  LIG1   0.1300
     35 H10       -14.9785    15.7490   -13.6189 H          1  LIG1   0.1400
     36 H11       -17.6841    14.2972   -15.3840 H          1  LIG1   0.4200
     37 H12       -18.5749    16.4000   -16.1164 H          1  LIG1   0.1600
     38 H13       -17.4496    17.7715   -16.2629 H          1  LIG1   0.1700
     39 H14       -15.9472    16.6097   -19.3588 H          1  LIG1   0.1500
     40 H15       -15.9411    17.8918   -18.1242 H          1  LIG1   0.1300
     41 H16       -15.3221    16.2708   -17.7272 H          1  LIG1   0.1300
     42 H17       -19.3712    17.1393   -18.1025 H          1  LIG1   0.1400
     43 H18       -18.0940    18.1922   -18.7567 H          1  LIG1   0.1400
     44 H19       -17.6414    16.5335   -20.5433 H          1  LIG1   0.1400
     45 H20       -18.9185    15.4804   -19.8891 H          1  LIG1   0.1300
     46 H21       -22.7071    15.9921   -20.2222 H          1  LIG1   0.1000
     47 H22       -21.2543    14.9678   -20.3149 H          1  LIG1   0.1200
     48 H23       -21.4665    16.0897   -18.9495 H          1  LIG1   0.0900
     49 H24       -20.7285    19.5031   -22.7991 H          1  LIG1   0.2100
@<TRIPOS>BOND
     1    1    2 1
     2    1   27 1
     3    1   28 1
     4    1   29 1
     5    2    3 1
     6    2   30 1
     7    2   31 1
     8    3    8 ar
     9    3    4 ar
    10    4    5 ar
    11    4   32 1
    12    5    6 ar
    13    5   33 1
    14    6    7 ar
    15    6   34 1
    16    7    8 ar
    17    7   35 1
    18    8    9 1
    19    9   10 am
    20    9   36 1
    21   10   11 2
    22   10   12 1
    23   12   13 1
    24   12   37 1
    25   12   38 1
    26   13   14 1
    27   13   15 1
    28   13   16 1
    29   15   39 1
    30   15   40 1
    31   15   41 1
    32   16   17 1
    33   16   42 1
    34   16   43 1
    35   17   18 1
    36   17   44 1
    37   17   45 1
    38   18   23 1
    39   18   19 1
    40   19   20 1
    41   19   21 2
    42   20   46 1
    43   20   47 1
    44   20   48 1
    45   21   22 1
    46   22   23 2
    47   22   49 1
    48   23   24 1
    49   24   25 2
    50   24   26 2
##########                 Name:     ZINC000561217259
##########          Protonation:                 none
##########               SMILES:   CN1C(=O)C(CNC(=O)N[C@H](C[NH3+])C2CCCC2)=CC2=CC=CC=C21
##########            Long Name:   NO_LONG_NAME
##########          FlexRecCode: 1
##########               Number:                11855
##########   Ligand Source File: /nfs/db/export/3D/ED/ADRO/EDADRO.xaeu.db2.gz
##########                 Rank:                    1
##########               Setnum:                   85
##########             Matchnum:                    1
##########                Cloud:                    1
##########        Electrostatic:           -43.256420
##########                 Gist:             0.000000
##########        Van der Waals:           -33.584030
##########  Ligand Polar Desolv:            12.287024
########## Ligand Apolar Desolv:            -2.815268
##########      Internal Energy:             0.000000
##########      Receptor Energy:             0.000000
########## Receptor Desolvation:             0.000000
########## Receptor Hydrophobic:             0.000000
##########         Total Energy:           -67.368698
##########        Ligand Charge:             1.000000
##########            Arbitrary:    +999.9990
##########        Ligand Energy:             0.000000

@<TRIPOS>MOLECULE
 ZINC000561217259      none
   52    54     0     0     0



@<TRIPOS>ATOM
      1 C1        -12.9588    14.7812   -11.9931 C.3        1  LIG1   0.0600
      2 N1        -13.8809    14.9007   -13.1253 N.am       1  LIG1  -0.5200
      3 C2        -13.9985    16.0787   -13.7626 C.2        1  LIG1   0.5400
      4 O1        -13.3333    17.0275   -13.3849 O.2        1  LIG1  -0.5400
      5 C3        -14.8725    16.2440   -14.8585 C.2        1  LIG1  -0.2300
      6 C4        -14.9719    17.5823   -15.5441 C.3        1  LIG1   0.2000
      7 N2        -14.9479    17.3901   -16.9962 N.am       1  LIG1  -0.7200
      8 C5        -15.9889    17.8004   -17.7476 C.2        1  LIG1   0.7000
      9 O2        -16.9480    18.3298   -17.2202 O.2        1  LIG1  -0.6000
     10 N3        -15.9668    17.6235   -19.0835 N.am       1  LIG1  -0.7500
     11 C6        -17.0983    18.0695   -19.9002 C.3        1  LIG1   0.1500
     12 H1        -17.5702    18.9309   -19.4279 H          1  LIG1   0.1200
     13 C7        -18.1166    16.9344   -20.0242 C.3        1  LIG1  -0.0200
     14 N4        -18.5957    16.5582   -18.6873 N.4        1  LIG1  -0.6300
     15 H2        -19.2672    15.8096   -18.7691 H          1  LIG1   0.4300
     16 H3        -17.8163    16.2510   -18.1249 H          1  LIG1   0.4300
     17 H4        -19.0326    17.3557   -18.2500 H          1  LIG1   0.4400
     18 C8        -16.5992    18.4611   -21.2926 C.3        1  LIG1  -0.1000
     19 C9        -17.7540    19.0598   -22.1337 C.3        1  LIG1  -0.1200
     20 C10       -17.0036    19.9181   -23.1822 C.3        1  LIG1  -0.1300
     21 C11       -15.8268    20.5321   -22.3964 C.3        1  LIG1  -0.1300
     22 C12       -15.5696    19.6058   -21.1948 C.3        1  LIG1  -0.1200
     23 C13       -15.6226    15.2030   -15.2968 C.2        1  LIG1   0.0300
     24 C14       -15.5025    13.9160   -14.6093 C.ar       1  LIG1  -0.1500
     25 C15       -16.2499    12.8061   -15.0160 C.ar       1  LIG1  -0.0500
     26 C16       -16.1144    11.6187   -14.3535 C.ar       1  LIG1  -0.1500
     27 C17       -15.2415    11.5042   -13.2805 C.ar       1  LIG1  -0.0500
     28 C18       -14.4952    12.5850   -12.8621 C.ar       1  LIG1  -0.1700
     29 C19       -14.6116    13.8021   -13.5252 C.ar       1  LIG1   0.1900
     30 H5        -12.4706    15.7401   -11.8195 H          1  LIG1   0.0800
     31 H6        -13.5139    14.4895   -11.1015 H          1  LIG1   0.0900
     32 H7        -12.2059    14.0251   -12.2159 H          1  LIG1   0.0900
     33 H8        -15.9040    18.0690   -15.2574 H          1  LIG1   0.0900
     34 H9        -14.1294    18.2065   -15.2464 H          1  LIG1   0.0900
     35 H10       -14.1827    16.9675   -17.4169 H          1  LIG1   0.4000
     36 H11       -15.2017    17.2010   -19.5043 H          1  LIG1   0.4100
     37 H12       -18.9585    17.2661   -20.6317 H          1  LIG1   0.1500
     38 H13       -17.6448    16.0729   -20.4967 H          1  LIG1   0.1300
     39 H14       -16.1641    17.5987   -21.7974 H          1  LIG1   0.0900
     40 H15       -18.3273    18.2703   -22.6196 H          1  LIG1   0.0700
     41 H16       -18.3998    19.6829   -21.5150 H          1  LIG1   0.0800
     42 H17       -16.6345    19.2917   -23.9944 H          1  LIG1   0.0700
     43 H18       -17.6543    20.7022   -23.5693 H          1  LIG1   0.0700
     44 H19       -14.9398    20.5790   -23.0281 H          1  LIG1   0.0700
     45 H20       -16.0910    21.5308   -22.0481 H          1  LIG1   0.0700
     46 H21       -15.7089    20.1549   -20.2635 H          1  LIG1   0.0700
     47 H22       -14.5580    19.2032   -21.2436 H          1  LIG1   0.0700
     48 H23       -16.2942    15.3208   -16.1344 H          1  LIG1   0.1500
     49 H24       -16.9315    12.8872   -15.8498 H          1  LIG1   0.1400
     50 H25       -16.6920    10.7618   -14.6674 H          1  LIG1   0.1400
     51 H26       -15.1464    10.5585   -12.7677 H          1  LIG1   0.1400
     52 H27       -13.8194    12.4859   -12.0256 H          1  LIG1   0.1400
@<TRIPOS>BOND
     1    1    2 1
     2    1   30 1
     3    1   31 1
     4    1   32 1
     5    2   29 1
     6    2    3 am
     7    3    4 2
     8    3    5 1
     9    5    6 1
    10    5   23 2
    11    6    7 1
    12    6   33 1
    13    6   34 1
    14    7    8 am
    15    7   35 1
    16    8    9 2
    17    8   10 am
    18   10   11 1
    19   10   36 1
    20   11   12 1
    21   11   13 1
    22   11   18 1
    23   13   14 1
    24   13   37 1
    25   13   38 1
    26   14   15 1
    27   14   16 1
    28   14   17 1
    29   18   22 1
    30   18   19 1
    31   18   39 1
    32   19   20 1
    33   19   40 1
    34   19   41 1
    35   20   21 1
    36   20   42 1
    37   20   43 1
    38   21   22 1
    39   21   44 1
    40   21   45 1
    41   22   46 1
    42   22   47 1
    43   23   24 1
    44   23   48 1
    45   24   29 ar
    46   24   25 ar
    47   25   26 ar
    48   25   49 1
    49   26   27 ar
    50   26   50 1
    51   27   28 ar
    52   27   51 1
    53   28   29 ar
    54   28   52 1
##########                 Name:     ZINC000563406324
##########          Protonation:                 none
##########               SMILES:   O=C([C@@H]1CCC[N@H+](CC2=CC=CC(F)=C2)C1)N1CC2=CN=CN=C2C1
##########            Long Name:   NO_LONG_NAME
##########          FlexRecCode: 1
##########               Number:                 6878
##########   Ligand Source File: /nfs/db/export/3D/EE/ADMO/EEADMO.xaam.db2.gz
##########                 Rank:                    1
##########               Setnum:                   66
##########             Matchnum:                    1
##########                Cloud:                    1
##########        Electrostatic:           -41.706062
##########                 Gist:             0.000000
##########        Van der Waals:           -36.934006
##########  Ligand Polar Desolv:            20.037306
########## Ligand Apolar Desolv:            -5.917250
##########      Internal Energy:             0.000000
##########      Receptor Energy:             0.000000
########## Receptor Desolvation:             0.000000
########## Receptor Hydrophobic:             0.000000
##########         Total Energy:           -64.520012
##########        Ligand Charge:             1.000000
##########            Arbitrary:    +999.9990
##########        Ligand Energy:             0.000000

@<TRIPOS>MOLECULE
 ZINC000563406324      none
   47    50     0     0     0



@<TRIPOS>ATOM
      1 O1        -14.6284    16.9305   -16.4794 O.2        1  LIG1  -0.5100
      2 C1        -15.4093    16.0033   -16.5182 C.2        1  LIG1   0.5500
      3 C2        -16.5206    15.9963   -17.5362 C.3        1  LIG1  -0.1300
      4 H1        -16.7655    14.9676   -17.8004 H          1  LIG1   0.1200
      5 C3        -16.0708    16.7531   -18.7893 C.3        1  LIG1  -0.1300
      6 C4        -17.2329    16.8076   -19.7852 C.3        1  LIG1  -0.1400
      7 C5        -18.4420    17.4632   -19.1145 C.3        1  LIG1  -0.0200
      8 N1        -18.8392    16.6786   -17.9393 N.4        1  LIG1  -0.3800
      9 H2        -19.0338    15.7292   -18.2201 H          1  LIG1   0.4200
     10 C6        -20.0454    17.2686   -17.3434 C.3        1  LIG1   0.0400
     11 C7        -21.1619    17.2590   -18.3556 C.ar       1  LIG1  -0.1300
     12 C8        -21.3310    18.3340   -19.2078 C.ar       1  LIG1  -0.1100
     13 C9        -22.3550    18.3266   -20.1369 C.ar       1  LIG1  -0.0800
     14 C10       -23.2104    17.2443   -20.2145 C.ar       1  LIG1  -0.1200
     15 C11       -23.0417    16.1665   -19.3615 C.ar       1  LIG1   0.1100
     16 F1        -23.8776    15.1078   -19.4364 F          1  LIG1  -0.1200
     17 C12       -22.0129    16.1728   -18.4350 C.ar       1  LIG1  -0.1300
     18 C13       -17.7564    16.6810   -16.9484 C.3        1  LIG1   0.0100
     19 N2        -15.2801    14.9767   -15.6546 N.am       1  LIG1  -0.6100
     20 C14       -16.1340    13.7861   -15.5785 C.3        1  LIG1   0.1600
     21 C15       -15.6094    12.9185   -14.4666 C.ar       1  LIG1  -0.2200
     22 C16       -16.0228    11.6973   -13.9616 C.ar       1  LIG1   0.1900
     23 N3        -15.3520    11.1608   -12.9538 N.ar       1  LIG1  -0.5000
     24 C17       -14.3070    11.7746   -12.4361 C.ar       1  LIG1   0.3100
     25 N4        -13.8868    12.9378   -12.8927 N.ar       1  LIG1  -0.5000
     26 C18       -14.5085    13.5334   -13.8980 C.ar       1  LIG1   0.1500
     27 C19       -14.2548    14.8331   -14.6152 C.3        1  LIG1   0.1500
     28 H3        -15.7763    17.7665   -18.5170 H          1  LIG1   0.1000
     29 H4        -15.2255    16.2362   -19.2436 H          1  LIG1   0.1000
     30 H5        -16.9384    17.3926   -20.6565 H          1  LIG1   0.1200
     31 H6        -17.4935    15.7960   -20.0964 H          1  LIG1   0.0900
     32 H7        -18.1805    18.4748   -18.8040 H          1  LIG1   0.1300
     33 H8        -19.2711    17.5038   -19.8208 H          1  LIG1   0.1400
     34 H9        -20.3414    16.6867   -16.4705 H          1  LIG1   0.1400
     35 H10       -19.8369    18.2952   -17.0420 H          1  LIG1   0.1400
     36 H11       -20.6631    19.1805   -19.1476 H          1  LIG1   0.1400
     37 H12       -22.4865    19.1673   -20.8020 H          1  LIG1   0.1500
     38 H13       -24.0106    17.2391   -20.9398 H          1  LIG1   0.1500
     39 H14       -21.8801    15.3327   -17.7696 H          1  LIG1   0.1500
     40 H15       -18.0796    16.1447   -16.0563 H          1  LIG1   0.1400
     41 H16       -17.5089    17.7090   -16.6836 H          1  LIG1   0.1500
     42 H17       -17.1611    14.0809   -15.3639 H          1  LIG1   0.1000
     43 H18       -16.0942    13.2417   -16.5220 H          1  LIG1   0.1000
     44 H19       -16.8788    11.1908   -14.3825 H          1  LIG1   0.1800
     45 H20       -13.7805    11.3121   -11.6144 H          1  LIG1   0.2100
     46 H21       -13.2643    14.8169   -15.0699 H          1  LIG1   0.1000
     47 H22       -14.3259    15.6630   -13.9120 H          1  LIG1   0.1000
@<TRIPOS>BOND
     1    1    2 2
     2    2    3 1
     3    2   19 am
     4    3    4 1
     5    3   18 1
     6    3    5 1
     7    5    6 1
     8    5   28 1
     9    5   29 1
    10    6    7 1
    11    6   30 1
    12    6   31 1
    13    7    8 1
    14    7   32 1
    15    7   33 1
    16    8    9 1
    17    8   10 1
    18    8   18 1
    19   10   11 1
    20   10   34 1
    21   10   35 1
    22   11   17 ar
    23   11   12 ar
    24   12   13 ar
    25   12   36 1
    26   13   14 ar
    27   13   37 1
    28   14   15 ar
    29   14   38 1
    30   15   16 1
    31   15   17 ar
    32   17   39 1
    33   18   40 1
    34   18   41 1
    35   19   27 1
    36   19   20 1
    37   20   21 1
    38   20   42 1
    39   20   43 1
    40   21   26 ar
    41   21   22 ar
    42   22   23 ar
    43   22   44 1
    44   23   24 ar
    45   24   25 ar
    46   24   45 1
    47   25   26 ar
    48   26   27 1
    49   27   46 1
    50   27   47 1
##########                 Name:     ZINC000298731694
##########          Protonation:                 none
##########               SMILES:   O=C(N[C@H](CO)C[NH+]1CCCCC1)C1=CC(=O)C2=CC=CC=C2N1
##########            Long Name:   NO_LONG_NAME
##########          FlexRecCode: 1
##########               Number:                 9393
##########   Ligand Source File: /nfs/db/export/3D/ED/ADRO/EDADRO.xdru.db2.gz
##########                 Rank:                    1
##########               Setnum:                   53
##########             Matchnum:                    1
##########                Cloud:                    1
##########        Electrostatic:           -50.454315
##########                 Gist:             0.000000
##########        Van der Waals:           -33.086700
##########  Ligand Polar Desolv:            17.257448
########## Ligand Apolar Desolv:            -3.574309
##########      Internal Energy:             0.000000
##########      Receptor Energy:             0.000000
########## Receptor Desolvation:             0.000000
########## Receptor Hydrophobic:             0.000000
##########         Total Energy:           -69.857880
##########        Ligand Charge:             1.000000
##########            Arbitrary:    +999.9990
##########        Ligand Energy:             0.000000

@<TRIPOS>MOLECULE
 ZINC000298731694      none
   48    50     0     0     0



@<TRIPOS>ATOM
      1 O1        -16.4891    17.8211   -17.2202 O.2        1  LIG1  -0.5000
      2 C1        -16.4707    16.6098   -17.3131 C.2        1  LIG1   0.5600
      3 N1        -16.8772    16.0152   -18.4521 N.am       1  LIG1  -0.7300
      4 C2        -17.3414    16.8291   -19.5782 C.3        1  LIG1   0.1300
      5 H1        -17.6265    16.1775   -20.4043 H          1  LIG1   0.1300
      6 C3        -16.2171    17.7632   -20.0301 C.3        1  LIG1   0.0600
      7 O2        -16.4724    18.2049   -21.3649 O.3        1  LIG1  -0.5800
      8 C4        -18.5505    17.6595   -19.1432 C.3        1  LIG1  -0.0200
      9 N2        -19.6301    16.7628   -18.7095 N.4        1  LIG1  -0.3800
     10 H2        -19.2382    15.9967   -18.1824 H          1  LIG1   0.4200
     11 C5        -20.3300    16.2366   -19.8874 C.3        1  LIG1  -0.0200
     12 C6        -21.4029    15.2393   -19.4448 C.3        1  LIG1  -0.1400
     13 C7        -22.4042    15.9483   -18.5284 C.3        1  LIG1  -0.1400
     14 C8        -21.6525    16.5570   -17.3412 C.3        1  LIG1  -0.1500
     15 C9        -20.5713    17.5060   -17.8632 C.3        1  LIG1  -0.0100
     16 C10       -15.9950    15.7861   -16.1755 C.2        1  LIG1   0.1600
     17 C11       -15.0626    16.3037   -15.3367 C.2        1  LIG1  -0.2600
     18 C12       -14.5911    15.5347   -14.2393 C.2        1  LIG1   0.4200
     19 O3        -13.7540    15.9797   -13.4726 O.2        1  LIG1  -0.4800
     20 C13       -15.1463    14.1833   -14.0572 C.ar       1  LIG1  -0.2000
     21 C14       -14.7357    13.3653   -13.0038 C.ar       1  LIG1  -0.0300
     22 C15       -15.2741    12.1166   -12.8668 C.ar       1  LIG1  -0.1500
     23 C16       -16.2256    11.6553   -13.7667 C.ar       1  LIG1  -0.0500
     24 C17       -16.6454    12.4460   -14.8137 C.ar       1  LIG1  -0.1700
     25 C18       -16.1105    13.7218   -14.9729 C.ar       1  LIG1   0.1900
     26 N3        -16.5142    14.5357   -16.0050 N.pl3      1  LIG1  -0.5900
     27 H3        -16.8626    15.0481   -18.5263 H          1  LIG1   0.4100
     28 H4        -16.1714    18.6252   -19.3647 H          1  LIG1   0.0700
     29 H5        -15.2670    17.2297   -19.9994 H          1  LIG1   0.0700
     30 H6        -16.5262    17.4889   -22.0127 H          1  LIG1   0.4000
     31 H7        -18.2655    18.3111   -18.3172 H          1  LIG1   0.1500
     32 H8        -18.8959    18.2651   -19.9810 H          1  LIG1   0.1500
     33 H9        -20.7996    17.0586   -20.4277 H          1  LIG1   0.1300
     34 H10       -19.6156    15.7350   -20.5401 H          1  LIG1   0.1300
     35 H11       -21.9227    14.8512   -20.3208 H          1  LIG1   0.1100
     36 H12       -20.9344    14.4166   -18.9046 H          1  LIG1   0.0900
     37 H13       -22.9101    16.7385   -19.0833 H          1  LIG1   0.0800
     38 H14       -23.1384    15.2292   -18.1649 H          1  LIG1   0.1000
     39 H15       -22.3505    17.1108   -16.7136 H          1  LIG1   0.1100
     40 H16       -21.1891    15.7617   -16.7573 H          1  LIG1   0.0900
     41 H17       -20.0336    17.9417   -17.0212 H          1  LIG1   0.1300
     42 H18       -21.0367    18.3005   -18.4464 H          1  LIG1   0.1300
     43 H19       -14.6789    17.2994   -15.5035 H          1  LIG1   0.1500
     44 H20       -13.9958    13.7172   -12.3002 H          1  LIG1   0.1400
     45 H21       -14.9565    11.4830   -12.0519 H          1  LIG1   0.1400
     46 H22       -16.6409    10.6660   -13.6446 H          1  LIG1   0.1400
     47 H23       -17.3862    12.0780   -15.5081 H          1  LIG1   0.1400
     48 H24       -17.1821    14.2116   -16.6294 H          1  LIG1   0.4300
@<TRIPOS>BOND
     1    1    2 2
     2    2    3 am
     3    2   16 1
     4    3    4 1
     5    3   27 1
     6    4    5 1
     7    4    6 1
     8    4    8 1
     9    6    7 1
    10    6   28 1
    11    6   29 1
    12    7   30 1
    13    8    9 1
    14    8   31 1
    15    8   32 1
    16    9   10 1
    17    9   15 1
    18    9   11 1
    19   11   12 1
    20   11   33 1
    21   11   34 1
    22   12   13 1
    23   12   35 1
    24   12   36 1
    25   13   14 1
    26   13   37 1
    27   13   38 1
    28   14   15 1
    29   14   39 1
    30   14   40 1
    31   15   41 1
    32   15   42 1
    33   16   26 1
    34   16   17 2
    35   17   18 1
    36   17   43 1
    37   18   19 2
    38   18   20 1
    39   20   25 ar
    40   20   21 ar
    41   21   22 ar
    42   21   44 1
    43   22   23 ar
    44   22   45 1
    45   23   24 ar
    46   23   46 1
    47   24   25 ar
    48   24   47 1
    49   25   26 1
    50   26   48 1
##########                 Name:     ZINC000293604393
##########          Protonation:                 none
##########               SMILES:   C[C@@H](CCC1=CC=CC=C1F)[NH2+][C@@H](CC(N)=O)C1=CC=CC=C1
##########            Long Name:   NO_LONG_NAME
##########          FlexRecCode: 1
##########               Number:                 4827
##########   Ligand Source File: /nfs/db/export/3D/DG/ADRO/DGADRO.xbxp.db2.gz
##########                 Rank:                    1
##########               Setnum:                   24
##########             Matchnum:                    1
##########                Cloud:                    1
##########        Electrostatic:           -48.674141
##########                 Gist:             0.000000
##########        Van der Waals:           -29.610409
##########  Ligand Polar Desolv:            11.807412
########## Ligand Apolar Desolv:            -5.222826
##########      Internal Energy:             0.000000
##########      Receptor Energy:             0.000000
########## Receptor Desolvation:             0.000000
########## Receptor Hydrophobic:             0.000000
##########         Total Energy:           -71.699959
##########        Ligand Charge:             1.000000
##########            Arbitrary:    +999.9990
##########        Ligand Energy:             0.000000

@<TRIPOS>MOLECULE
 ZINC000293604393      none
   47    48     0     0     0



@<TRIPOS>ATOM
      1 C1        -17.0319    18.3103   -16.0805 C.3        1  LIG1  -0.1900
      2 C2        -17.0675    16.9239   -16.7265 C.3        1  LIG1   0.0300
      3 H1        -16.3205    16.8729   -17.5186 H          1  LIG1   0.1400
      4 C3        -16.7633    15.8606   -15.6694 C.3        1  LIG1  -0.1400
      5 C4        -15.2524    15.7875   -15.4394 C.3        1  LIG1  -0.0900
      6 C5        -14.9528    14.7402   -14.3981 C.ar       1  LIG1  -0.1300
      7 C6        -15.5736    13.5073   -14.4594 C.ar       1  LIG1  -0.0800
      8 C7        -15.2987    12.5461   -13.5041 C.ar       1  LIG1  -0.1200
      9 C8        -14.4033    12.8175   -12.4868 C.ar       1  LIG1  -0.0800
     10 C9        -13.7814    14.0503   -12.4232 C.ar       1  LIG1  -0.1500
     11 C10       -14.0508    15.0110   -13.3828 C.ar       1  LIG1   0.1000
     12 F1        -13.4435    16.2164   -13.3218 F          1  LIG1  -0.1400
     13 N1        -18.4005    16.6824   -17.2945 N.4        1  LIG1  -0.5100
     14 H2        -18.5379    15.6907   -17.4202 H          1  LIG1   0.4300
     15 H3        -19.1038    17.0425   -16.6667 H          1  LIG1   0.4200
     16 C11       -18.5098    17.3605   -18.5930 C.3        1  LIG1   0.1000
     17 H4        -18.0267    18.3359   -18.5352 H          1  LIG1   0.1500
     18 C12       -17.8253    16.5151   -19.6690 C.3        1  LIG1  -0.1700
     19 C13       -17.4980    17.3830   -20.8568 C.2        1  LIG1   0.5100
     20 N2        -18.0206    17.0959   -22.0656 N.am       1  LIG1  -0.8300
     21 O1        -16.7643    18.3395   -20.7252 O.2        1  LIG1  -0.5600
     22 C14       -19.9640    17.5403   -18.9451 C.ar       1  LIG1  -0.1300
     23 C15       -20.3597    18.6141   -19.7207 C.ar       1  LIG1  -0.1200
     24 C16       -21.6936    18.7790   -20.0435 C.ar       1  LIG1  -0.1000
     25 C17       -22.6317    17.8699   -19.5915 C.ar       1  LIG1  -0.0900
     26 C18       -22.2359    16.7957   -18.8168 C.ar       1  LIG1  -0.1000
     27 C19       -20.9014    16.6284   -18.4974 C.ar       1  LIG1  -0.0900
     28 H5        -17.7788    18.3613   -15.2884 H          1  LIG1   0.0800
     29 H6        -16.0427    18.4896   -15.6592 H          1  LIG1   0.1000
     30 H7        -17.2488    19.0678   -16.8337 H          1  LIG1   0.0900
     31 H8        -17.2606    16.1236   -14.7357 H          1  LIG1   0.1200
     32 H9        -17.1256    14.8919   -16.0136 H          1  LIG1   0.0900
     33 H10       -14.7551    15.5244   -16.3731 H          1  LIG1   0.0700
     34 H11       -14.8900    16.7562   -15.0952 H          1  LIG1   0.1000
     35 H12       -16.2739    13.2943   -15.2535 H          1  LIG1   0.1400
     36 H13       -15.7844    11.5827   -13.5527 H          1  LIG1   0.1400
     37 H14       -14.1897    12.0661   -11.7409 H          1  LIG1   0.1400
     38 H15       -13.0823    14.2623   -11.6278 H          1  LIG1   0.1400
     39 H16       -16.9065    16.0889   -19.2663 H          1  LIG1   0.1200
     40 H17       -18.4933    15.7116   -19.9792 H          1  LIG1   0.1500
     41 H18       -18.6075    16.3306   -22.1708 H          1  LIG1   0.4100
     42 H19       -17.8100    17.6544   -22.8302 H          1  LIG1   0.4200
     43 H20       -19.6268    19.3243   -20.0738 H          1  LIG1   0.1200
     44 H21       -22.0029    19.6183   -20.6489 H          1  LIG1   0.1400
     45 H22       -23.6740    17.9990   -19.8434 H          1  LIG1   0.1400
     46 H23       -22.9689    16.0856   -18.4634 H          1  LIG1   0.1400
     47 H24       -20.5921    15.7891   -17.8922 H          1  LIG1   0.1400
@<TRIPOS>BOND
     1    1    2 1
     2    1   28 1
     3    1   29 1
     4    1   30 1
     5    2    3 1
     6    2    4 1
     7    2   13 1
     8    4    5 1
     9    4   31 1
    10    4   32 1
    11    5    6 1
    12    5   33 1
    13    5   34 1
    14    6   11 ar
    15    6    7 ar
    16    7    8 ar
    17    7   35 1
    18    8    9 ar
    19    8   36 1
    20    9   10 ar
    21    9   37 1
    22   10   11 ar
    23   10   38 1
    24   11   12 1
    25   13   14 1
    26   13   15 1
    27   13   16 1
    28   16   17 1
    29   16   18 1
    30   16   22 1
    31   18   19 1
    32   18   39 1
    33   18   40 1
    34   19   20 am
    35   19   21 2
    36   20   41 1
    37   20   42 1
    38   22   27 ar
    39   22   23 ar
    40   23   24 ar
    41   23   43 1
    42   24   25 ar
    43   24   44 1
    44   25   26 ar
    45   25   45 1
    46   26   27 ar
    47   26   46 1
    48   27   47 1
##########                 Name:     ZINC000592181028
##########          Protonation:                 none
##########               SMILES:   C[C@@H]1CC2(C[N@H+]1CC(=O)NC1=CC(Cl)=CC=C1C#N)CCOCC2
##########            Long Name:   NO_LONG_NAME
##########          FlexRecCode: 1
##########               Number:                11937
##########   Ligand Source File: /nfs/db/export/3D/EG/EDMO/EGEDMO.xbr.db2.gz
##########                 Rank:                    1
##########               Setnum:                   45
##########             Matchnum:                    1
##########                Cloud:                    1
##########        Electrostatic:           -44.355381
##########                 Gist:             0.000000
##########        Van der Waals:           -32.330494
##########  Ligand Polar Desolv:            15.833063
########## Ligand Apolar Desolv:            -4.775241
##########      Internal Energy:             0.000000
##########      Receptor Energy:             0.000000
########## Receptor Desolvation:             0.000000
########## Receptor Hydrophobic:             0.000000
##########         Total Energy:           -65.628052
##########        Ligand Charge:             1.000000
##########            Arbitrary:    +999.9990
##########        Ligand Energy:             0.000000

@<TRIPOS>MOLECULE
 ZINC000592181028      none
   47    49     0     0     0



@<TRIPOS>ATOM
      1 C1        -17.9332    17.5380   -16.0226 C.3        1  LIG1  -0.1800
      2 C2        -18.3455    17.6662   -17.4903 C.3        1  LIG1   0.0300
      3 H1        -17.7433    18.4230   -17.9929 H          1  LIG1   0.1500
      4 C3        -19.8548    18.0018   -17.6072 C.3        1  LIG1  -0.1300
      5 C4        -20.2136    17.4772   -19.0112 C.3        1  LIG1  -0.0700
      6 C5        -19.1359    16.4386   -19.3526 C.3        1  LIG1  -0.0100
      7 N1        -18.2282    16.3575   -18.1840 N.4        1  LIG1  -0.3800
      8 H2        -18.5196    15.6132   -17.5681 H          1  LIG1   0.4300
      9 C6        -16.8464    16.1346   -18.6303 C.3        1  LIG1  -0.0300
     10 C7        -16.0142    15.6564   -17.4685 C.2        1  LIG1   0.5100
     11 O1        -15.0521    16.2998   -17.1063 O.2        1  LIG1  -0.5000
     12 N2        -16.3391    14.5137   -16.8320 N.am       1  LIG1  -0.6500
     13 C8        -15.5693    14.0713   -15.7573 C.ar       1  LIG1   0.1900
     14 C9        -14.9176    14.9863   -14.9437 C.ar       1  LIG1  -0.1200
     15 C10       -14.1550    14.5455   -13.8780 C.ar       1  LIG1   0.0100
     16 Cl1       -13.3428    15.6965   -12.8636 Cl         1  LIG1  -0.0300
     17 C11       -14.0356    13.1897   -13.6147 C.ar       1  LIG1  -0.1100
     18 C12       -14.6761    12.2669   -14.4133 C.ar       1  LIG1  -0.0300
     19 C13       -15.4546    12.6982   -15.4899 C.ar       1  LIG1  -0.0400
     20 C14       -16.1224    11.7442   -16.3234 C.1        1  LIG1   0.2400
     21 N3        -16.6522    10.9874   -16.9845 N.1        1  LIG1  -0.3800
     22 C15       -21.5924    16.8235   -18.9888 C.3        1  LIG1  -0.1500
     23 C16       -21.9585    16.3706   -20.4058 C.3        1  LIG1   0.0500
     24 O2        -21.9032    17.4921   -21.2901 O.3        1  LIG1  -0.3700
     25 C17       -20.6110    18.0935   -21.3938 C.3        1  LIG1   0.0500
     26 C18       -20.1857    18.6221   -20.0201 C.3        1  LIG1  -0.1500
     27 H3        -18.5458    16.7776   -15.5381 H          1  LIG1   0.0800
     28 H4        -16.8834    17.2504   -15.9640 H          1  LIG1   0.1100
     29 H5        -18.0765    18.4946   -15.5200 H          1  LIG1   0.0800
     30 H6        -20.4271    17.4782   -16.8415 H          1  LIG1   0.1100
     31 H7        -20.0170    19.0778   -17.5439 H          1  LIG1   0.1200
     32 H8        -19.5980    15.4684   -19.5349 H          1  LIG1   0.1500
     33 H9        -18.5774    16.7569   -20.2330 H          1  LIG1   0.1300
     34 H10       -16.8363    15.3819   -19.4187 H          1  LIG1   0.1600
     35 H11       -16.4335    17.0677   -19.0134 H          1  LIG1   0.1700
     36 H12       -17.1086    13.9991   -17.1218 H          1  LIG1   0.4200
     37 H13       -15.0058    16.0441   -15.1430 H          1  LIG1   0.1600
     38 H14       -13.4377    12.8549   -12.7799 H          1  LIG1   0.1600
     39 H15       -14.5794    11.2117   -14.2045 H          1  LIG1   0.1600
     40 H16       -21.5752    15.9601   -18.3238 H          1  LIG1   0.0800
     41 H17       -22.3308    17.5426   -18.6341 H          1  LIG1   0.0900
     42 H18       -21.2521    15.6101   -20.7385 H          1  LIG1   0.0500
     43 H19       -22.9666    15.9565   -20.4063 H          1  LIG1   0.1100
     44 H20       -19.8907    17.3509   -21.7368 H          1  LIG1   0.0500
     45 H21       -20.6500    18.9188   -22.1049 H          1  LIG1   0.1100
     46 H22       -20.8742    19.4047   -19.7019 H          1  LIG1   0.1000
     47 H23       -19.1759    19.0276   -20.0828 H          1  LIG1   0.0800
@<TRIPOS>BOND
     1    1    2 1
     2    1   27 1
     3    1   28 1
     4    1   29 1
     5    2    3 1
     6    2    7 1
     7    2    4 1
     8    4    5 1
     9    4   30 1
    10    4   31 1
    11    5   26 1
    12    5    6 1
    13    5   22 1
    14    6    7 1
    15    6   32 1
    16    6   33 1
    17    7    8 1
    18    7    9 1
    19    9   10 1
    20    9   34 1
    21    9   35 1
    22   10   11 2
    23   10   12 am
    24   12   13 1
    25   12   36 1
    26   13   19 ar
    27   13   14 ar
    28   14   15 ar
    29   14   37 1
    30   15   16 1
    31   15   17 ar
    32   17   18 ar
    33   17   38 1
    34   18   19 ar
    35   18   39 1
    36   19   20 1
    37   20   21 3
    38   22   23 1
    39   22   40 1
    40   22   41 1
    41   23   24 1
    42   23   42 1
    43   23   43 1
    44   24   25 1
    45   25   26 1
    46   25   44 1
    47   25   45 1
    48   26   46 1
    49   26   47 1
##########                 Name:     ZINC000360021487
##########          Protonation:                 none
##########               SMILES:   CC1=CC=CC(C2=NN=C([C@@H](C)[N@@H+](C)CCC3=CC=NC=C3)O2)=C1
##########            Long Name:   NO_LONG_NAME
##########          FlexRecCode: 1
##########               Number:                 5928
##########   Ligand Source File: /nfs/db/export/3D/DH/ADMO/DHADMO.xbc.db2.gz
##########                 Rank:                    1
##########               Setnum:                  184
##########             Matchnum:                    1
##########                Cloud:                    1
##########        Electrostatic:           -39.168152
##########                 Gist:             0.000000
##########        Van der Waals:           -38.578407
##########  Ligand Polar Desolv:            17.283909
########## Ligand Apolar Desolv:            -4.340202
##########      Internal Energy:             0.000000
##########      Receptor Energy:             0.000000
########## Receptor Desolvation:             0.000000
########## Receptor Hydrophobic:             0.000000
##########         Total Energy:           -64.802856
##########        Ligand Charge:             1.000000
##########            Arbitrary:    +999.9990
##########        Ligand Energy:             0.000000

@<TRIPOS>MOLECULE
 ZINC000360021487      none
   47    49     0     0     0



@<TRIPOS>ATOM
      1 C1        -14.5025    11.5149   -13.2773 C.3        1  LIG1  -0.1200
      2 C2        -14.1117    12.9704   -13.2784 C.ar       1  LIG1  -0.0800
      3 C3        -13.2170    13.4455   -12.3365 C.ar       1  LIG1  -0.0800
      4 C4        -12.8530    14.7804   -12.3306 C.ar       1  LIG1  -0.1100
      5 C5        -13.3814    15.6467   -13.2653 C.ar       1  LIG1  -0.0800
      6 C6        -14.2846    15.1737   -14.2184 C.ar       1  LIG1  -0.0600
      7 C7        -14.8544    16.0963   -15.2234 C.2        1  LIG1   0.2700
      8 N1        -14.5958    17.3777   -15.3388 N.2        1  LIG1  -0.2700
      9 N2        -15.2702    17.8596   -16.3230 N.2        1  LIG1  -0.2500
     10 C8        -15.9798    16.9124   -16.8702 C.2        1  LIG1   0.0900
     11 C9        -16.9056    17.0626   -18.0499 C.3        1  LIG1   0.1500
     12 H1        -16.8976    18.0986   -18.3884 H          1  LIG1   0.1700
     13 C10       -16.4362    16.1511   -19.1856 C.3        1  LIG1  -0.1800
     14 N3        -18.2693    16.6876   -17.6528 N.4        1  LIG1  -0.3800
     15 H2        -18.3564    15.6824   -17.6568 H          1  LIG1   0.4300
     16 C11       -18.5440    17.1976   -16.3029 C.3        1  LIG1  -0.0600
     17 C12       -19.2316    17.2661   -18.6001 C.3        1  LIG1  -0.0100
     18 C13       -20.5560    16.5053   -18.5103 C.3        1  LIG1  -0.1000
     19 C14       -21.5432    17.0988   -19.4820 C.ar       1  LIG1  -0.0600
     20 C15       -21.1902    18.1724   -20.2854 C.ar       1  LIG1  -0.1700
     21 C16       -22.1221    18.6904   -21.1649 C.ar       1  LIG1   0.1100
     22 N4        -23.3336    18.1756   -21.2442 N.ar       1  LIG1  -0.4700
     23 C17       -23.7039    17.1549   -20.4960 C.ar       1  LIG1   0.1100
     24 C18       -22.8239    16.5806   -19.5982 C.ar       1  LIG1  -0.1700
     25 O1        -15.7318    15.7765   -16.1956 O.3        1  LIG1  -0.2000
     26 C19       -14.6428    13.8250   -14.2226 C.ar       1  LIG1  -0.0600
     27 H3        -13.9869    11.0009   -12.4661 H          1  LIG1   0.0800
     28 H4        -15.5798    11.4280   -13.1356 H          1  LIG1   0.0800
     29 H5        -14.2235    11.0630   -14.2291 H          1  LIG1   0.0700
     30 H6        -12.8010    12.7716   -11.6021 H          1  LIG1   0.1400
     31 H7        -12.1541    15.1452   -11.5925 H          1  LIG1   0.1400
     32 H8        -13.0971    16.6885   -13.2592 H          1  LIG1   0.1300
     33 H9        -17.1058    16.2597   -20.0388 H          1  LIG1   0.1000
     34 H10       -15.4243    16.4293   -19.4801 H          1  LIG1   0.1100
     35 H11       -16.4442    15.1151   -18.8471 H          1  LIG1   0.1000
     36 H12       -19.5560    16.9193   -16.0083 H          1  LIG1   0.1300
     37 H13       -17.8300    16.7684   -15.6000 H          1  LIG1   0.1400
     38 H14       -18.4501    18.2835   -16.2987 H          1  LIG1   0.1200
     39 H15       -19.3976    18.3149   -18.3543 H          1  LIG1   0.1400
     40 H16       -18.8360    17.1886   -19.6128 H          1  LIG1   0.1400
     41 H17       -20.3898    15.4565   -18.7562 H          1  LIG1   0.1000
     42 H18       -20.9515    16.5829   -17.4976 H          1  LIG1   0.1000
     43 H19       -20.1999    18.5987   -20.2244 H          1  LIG1   0.1400
     44 H20       -21.8551    19.5264   -21.7941 H          1  LIG1   0.1600
     45 H21       -24.7049    16.7604   -20.5887 H          1  LIG1   0.1600
     46 H22       -23.1329    15.7446   -18.9883 H          1  LIG1   0.1400
     47 H23       -15.3412    13.4528   -14.9576 H          1  LIG1   0.1400
@<TRIPOS>BOND
     1    1    2 1
     2    1   27 1
     3    1   28 1
     4    1   29 1
     5    2   26 ar
     6    2    3 ar
     7    3    4 ar
     8    3   30 1
     9    4    5 ar
    10    4   31 1
    11    5    6 ar
    12    5   32 1
    13    6    7 1
    14    6   26 ar
    15    7   25 1
    16    7    8 2
    17    8    9 1
    18    9   10 2
    19   10   11 1
    20   10   25 1
    21   11   12 1
    22   11   13 1
    23   11   14 1
    24   13   33 1
    25   13   34 1
    26   13   35 1
    27   14   15 1
    28   14   16 1
    29   14   17 1
    30   16   36 1
    31   16   37 1
    32   16   38 1
    33   17   18 1
    34   17   39 1
    35   17   40 1
    36   18   19 1
    37   18   41 1
    38   18   42 1
    39   19   24 ar
    40   19   20 ar
    41   20   21 ar
    42   20   43 1
    43   21   22 ar
    44   21   44 1
    45   22   23 ar
    46   23   24 ar
    47   23   45 1
    48   24   46 1
    49   26   47 1
##########                 Name:     ZINC000527688598
##########          Protonation:                 none
##########               SMILES:   OC[C@@H](C[C@H](O)C1=CC=CC=C1)[NH2+]CC1=NC=C(Br)C=C1F
##########            Long Name:   NO_LONG_NAME
##########          FlexRecCode: 1
##########               Number:                 2849
##########   Ligand Source File: /nfs/db/export/3D/FF/ADMO/FFADMO.xbli.db2.gz
##########                 Rank:                    1
##########               Setnum:                  155
##########             Matchnum:                    1
##########                Cloud:                    1
##########        Electrostatic:           -38.663399
##########                 Gist:             0.000000
##########        Van der Waals:           -33.716003
##########  Ligand Polar Desolv:            10.619505
########## Ligand Apolar Desolv:            -2.813448
##########      Internal Energy:             0.000000
##########      Receptor Energy:             0.000000
########## Receptor Desolvation:             0.000000
########## Receptor Hydrophobic:             0.000000
##########         Total Energy:           -64.573349
##########        Ligand Charge:             1.000000
##########            Arbitrary:    +999.9990
##########        Ligand Energy:             0.000000

@<TRIPOS>MOLECULE
 ZINC000527688598      none
   41    42     0     0     0



@<TRIPOS>ATOM
      1 O1        -14.9236    18.1537   -18.4136 O.3        1  LIG1  -0.5800
      2 C1        -16.0396    17.5711   -19.0896 C.3        1  LIG1   0.0500
      3 C2        -17.1987    17.3989   -18.1059 C.3        1  LIG1   0.0400
      4 H1        -17.2538    18.2701   -17.4531 H          1  LIG1   0.1500
      5 C3        -18.5098    17.2594   -18.8820 C.3        1  LIG1  -0.1700
      6 C4        -19.6860    17.5843   -17.9589 C.3        1  LIG1   0.1400
      7 H2        -19.5882    18.6059   -17.5915 H          1  LIG1   0.1300
      8 O2        -19.6882    16.6786   -16.8536 O.3        1  LIG1  -0.5600
      9 C5        -20.9774    17.4470   -18.7235 C.ar       1  LIG1  -0.1300
     10 C6        -21.4997    18.5342   -19.3988 C.ar       1  LIG1  -0.1100
     11 C7        -22.6842    18.4082   -20.1002 C.ar       1  LIG1  -0.1100
     12 C8        -23.3461    17.1950   -20.1266 C.ar       1  LIG1  -0.1100
     13 C9        -22.8233    16.1075   -19.4520 C.ar       1  LIG1  -0.1100
     14 C10       -21.6366    16.2324   -18.7542 C.ar       1  LIG1  -0.1100
     15 N1        -16.9785    16.1933   -17.2959 N.4        1  LIG1  -0.5000
     16 H3        -17.8544    15.8926   -16.8954 H          1  LIG1   0.4400
     17 H4        -16.6059    15.4594   -17.8795 H          1  LIG1   0.4300
     18 C11       -16.0256    16.4942   -16.2192 C.3        1  LIG1   0.0500
     19 C12       -15.7997    15.2574   -15.3882 C.ar       1  LIG1   0.0400
     20 N2        -16.4258    14.1398   -15.6996 N.ar       1  LIG1  -0.4200
     21 C13       -16.2593    13.0334   -15.0017 C.ar       1  LIG1   0.1300
     22 C14       -15.4137    13.0064   -13.9079 C.ar       1  LIG1  -0.0900
     23 Br1       -15.1827    11.4134   -12.9154 Br         1  LIG1   0.0200
     24 C15       -14.7366    14.1623   -13.5480 C.ar       1  LIG1  -0.0800
     25 C16       -14.9326    15.3063   -14.3097 C.ar       1  LIG1   0.0900
     26 F1        -14.2936    16.4548   -13.9966 F          1  LIG1  -0.1100
     27 H5        -14.1505    18.2922   -18.9776 H          1  LIG1   0.4100
     28 H6        -16.3500    18.2224   -19.9065 H          1  LIG1   0.0700
     29 H7        -15.7546    16.5978   -19.4891 H          1  LIG1   0.1000
     30 H8        -18.5083    17.9501   -19.7252 H          1  LIG1   0.1300
     31 H9        -18.6077    16.2378   -19.2494 H          1  LIG1   0.1000
     32 H10       -19.7724    15.7491   -17.1069 H          1  LIG1   0.3900
     33 H11       -20.9825    19.4821   -19.3781 H          1  LIG1   0.1200
     34 H12       -23.0926    19.2577   -20.6272 H          1  LIG1   0.1300
     35 H13       -24.2720    17.0967   -20.6740 H          1  LIG1   0.1300
     36 H14       -23.3407    15.1597   -19.4724 H          1  LIG1   0.1300
     37 H15       -21.2281    15.3828   -18.2272 H          1  LIG1   0.1300
     38 H16       -15.0792    16.8191   -16.6517 H          1  LIG1   0.1500
     39 H17       -16.4280    17.2870   -15.5888 H          1  LIG1   0.1600
     40 H18       -16.7903    12.1374   -15.2877 H          1  LIG1   0.1900
     41 H19       -14.0697    14.1710   -12.6986 H          1  LIG1   0.1700
@<TRIPOS>BOND
     1    1    2 1
     2    1   27 1
     3    2    3 1
     4    2   28 1
     5    2   29 1
     6    3    4 1
     7    3    5 1
     8    3   15 1
     9    5    6 1
    10    5   30 1
    11    5   31 1
    12    6    7 1
    13    6    8 1
    14    6    9 1
    15    8   32 1
    16    9   14 ar
    17    9   10 ar
    18   10   11 ar
    19   10   33 1
    20   11   12 ar
    21   11   34 1
    22   12   13 ar
    23   12   35 1
    24   13   14 ar
    25   13   36 1
    26   14   37 1
    27   15   16 1
    28   15   17 1
    29   15   18 1
    30   18   19 1
    31   18   38 1
    32   18   39 1
    33   19   25 ar
    34   19   20 ar
    35   20   21 ar
    36   21   22 ar
    37   21   40 1
    38   22   23 1
    39   22   24 ar
    40   24   25 ar
    41   24   41 1
    42   25   26 1
##########                 Name:     ZINC000271382349
##########          Protonation:                 none
##########               SMILES:   CC[C@H]1C[N@@H+](CC2=CN(C3=CC=CC(Cl)=C3Cl)N=N2)C[C@@H]1O
##########            Long Name:   NO_LONG_NAME
##########          FlexRecCode: 1
##########               Number:                 3437
##########   Ligand Source File: /nfs/db/export/3D/EF/ADMO/EFADMO.xbfs.db2.gz
##########                 Rank:                    1
##########               Setnum:                  354
##########             Matchnum:                    1
##########                Cloud:                    1
##########        Electrostatic:           -45.936626
##########                 Gist:             0.000000
##########        Van der Waals:           -34.729744
##########  Ligand Polar Desolv:            19.958374
########## Ligand Apolar Desolv:            -3.989459
##########      Internal Energy:             0.000000
##########      Receptor Energy:             0.000000
########## Receptor Desolvation:             0.000000
########## Receptor Hydrophobic:             0.000000
##########         Total Energy:           -64.697449
##########        Ligand Charge:             1.000000
##########            Arbitrary:    +999.9990
##########        Ligand Energy:             0.000000

@<TRIPOS>MOLECULE
 ZINC000271382349      none
   41    43     0     0     0



@<TRIPOS>ATOM
      1 C1        -22.9664    17.5323   -19.3144 C.3        1  LIG1  -0.1600
      2 C2        -21.5702    17.5308   -19.9402 C.3        1  LIG1  -0.1100
      3 C3        -20.6199    16.7111   -19.0652 C.3        1  LIG1  -0.1100
      4 H1        -20.9687    15.6820   -18.9784 H          1  LIG1   0.1200
      5 C4        -19.1782    16.7555   -19.6306 C.3        1  LIG1   0.0000
      6 N1        -18.3368    16.4771   -18.4388 N.4        1  LIG1  -0.3900
      7 H2        -18.3203    15.4863   -18.2481 H          1  LIG1   0.4300
      8 C5        -16.9717    16.9748   -18.6548 C.3        1  LIG1   0.1000
      9 C6        -16.1325    16.6845   -17.4372 C.2        1  LIG1  -0.0900
     10 C7        -16.0827    15.5210   -16.7469 C.2        1  LIG1   0.0000
     11 N2        -15.1956    15.7219   -15.7344 N.pl3      1  LIG1  -0.2300
     12 C8        -14.8285    14.7796   -14.7623 C.ar       1  LIG1   0.1200
     13 C9        -15.3812    13.5068   -14.7841 C.ar       1  LIG1  -0.1000
     14 C10       -15.0180    12.5800   -13.8260 C.ar       1  LIG1  -0.0800
     15 C11       -14.1044    12.9184   -12.8452 C.ar       1  LIG1  -0.0700
     16 C12       -13.5509    14.1867   -12.8192 C.ar       1  LIG1  -0.0200
     17 Cl1       -12.4040    14.6077   -11.5859 Cl         1  LIG1  -0.0100
     18 C13       -13.9066    15.1169   -13.7793 C.ar       1  LIG1  -0.0200
     19 Cl2       -13.2122    16.7076   -13.7476 Cl         1  LIG1   0.0100
     20 N3        -14.7521    16.9271   -15.8239 N.2        1  LIG1  -0.0300
     21 N4        -15.2863    17.5240   -16.8300 N.2        1  LIG1  -0.2400
     22 C14       -18.9737    17.2016   -17.3175 C.3        1  LIG1  -0.0400
     23 C15       -20.4681    17.3567   -17.6688 C.3        1  LIG1   0.0900
     24 H3        -20.7395    18.4116   -17.7105 H          1  LIG1   0.1000
     25 O1        -21.2769    16.6752   -16.7076 O.3        1  LIG1  -0.5400
     26 H4        -23.6434    18.1162   -19.9379 H          1  LIG1   0.0600
     27 H5        -23.3325    16.5083   -19.2406 H          1  LIG1   0.0700
     28 H6        -22.9178    17.9734   -18.3189 H          1  LIG1   0.0600
     29 H7        -21.6188    17.0897   -20.9359 H          1  LIG1   0.0800
     30 H8        -21.2040    18.5548   -20.0139 H          1  LIG1   0.0800
     31 H9        -19.0383    15.9849   -20.3888 H          1  LIG1   0.1400
     32 H10       -18.9547    17.7418   -20.0374 H          1  LIG1   0.1400
     33 H11       -16.5371    16.4784   -19.5224 H          1  LIG1   0.1500
     34 H12       -17.0004    18.0505   -18.8282 H          1  LIG1   0.1500
     35 H13       -16.6351    14.6170   -16.9567 H          1  LIG1   0.2100
     36 H14       -16.0954    13.2410   -15.5494 H          1  LIG1   0.1500
     37 H15       -15.4486    11.5897   -13.8431 H          1  LIG1   0.1600
     38 H16       -13.8223    12.1918   -12.0976 H          1  LIG1   0.1600
     39 H17       -18.8688    16.6273   -16.3970 H          1  LIG1   0.1300
     40 H18       -18.5140    18.1829   -17.2006 H          1  LIG1   0.1400
     41 H19       -21.0582    15.7392   -16.6026 H          1  LIG1   0.4000
@<TRIPOS>BOND
     1    1    2 1
     2    1   26 1
     3    1   27 1
     4    1   28 1
     5    2    3 1
     6    2   29 1
     7    2   30 1
     8    3    4 1
     9    3   23 1
    10    3    5 1
    11    5    6 1
    12    5   31 1
    13    5   32 1
    14    6    7 1
    15    6    8 1
    16    6   22 1
    17    8    9 1
    18    8   33 1
    19    8   34 1
    20    9   21 1
    21    9   10 2
    22   10   11 1
    23   10   35 1
    24   11   12 1
    25   11   20 1
    26   12   18 ar
    27   12   13 ar
    28   13   14 ar
    29   13   36 1
    30   14   15 ar
    31   14   37 1
    32   15   16 ar
    33   15   38 1
    34   16   17 1
    35   16   18 ar
    36   18   19 1
    37   20   21 2
    38   22   23 1
    39   22   39 1
    40   22   40 1
    41   23   24 1
    42   23   25 1
    43   25   41 1
##########                 Name:     ZINC000363675222
##########          Protonation:                 none
##########               SMILES:   CO[C@H]1CCC[N@H+]([C@@H](C)C(=O)NC2=CC=C(C#N)C(Cl)=C2)CC1
##########            Long Name:   NO_LONG_NAME
##########          FlexRecCode: 1
##########               Number:                 5752
##########   Ligand Source File: /nfs/db/export/3D/EG/EDMO/EGEDMO.xbj.db2.gz
##########                 Rank:                    1
##########               Setnum:                   39
##########             Matchnum:                    1
##########                Cloud:                    1
##########        Electrostatic:           -47.168312
##########                 Gist:             0.000000
##########        Van der Waals:           -31.919777
##########  Ligand Polar Desolv:            17.954422
########## Ligand Apolar Desolv:            -4.403401
##########      Internal Energy:             0.000000
##########      Receptor Energy:             0.000000
########## Receptor Desolvation:             0.000000
########## Receptor Hydrophobic:             0.000000
##########         Total Energy:           -65.537071
##########        Ligand Charge:             1.000000
##########            Arbitrary:    +999.9990
##########        Ligand Energy:             0.000000

@<TRIPOS>MOLECULE
 ZINC000363675222      none
   46    47     0     0     0



@<TRIPOS>ATOM
      1 C1        -23.3048    18.1309   -20.2261 C.3        1  LIG1   0.0300
      2 O1        -22.7727    17.4876   -19.0663 O.3        1  LIG1  -0.3700
      3 C2        -21.3450    17.4357   -19.0338 C.3        1  LIG1   0.0800
      4 H1        -20.9380    18.3778   -19.4013 H          1  LIG1   0.0700
      5 C3        -20.8819    17.2056   -17.6190 C.3        1  LIG1  -0.1700
      6 C4        -19.5180    17.8540   -17.3109 C.3        1  LIG1  -0.1400
      7 C5        -18.5024    17.6695   -18.4516 C.3        1  LIG1  -0.0300
      8 N1        -18.5732    16.3370   -19.0062 N.4        1  LIG1  -0.3700
      9 H2        -18.9805    15.7069   -18.3316 H          1  LIG1   0.4300
     10 C6        -17.2262    15.8761   -19.3686 C.3        1  LIG1   0.0100
     11 H3        -17.2862    14.8711   -19.7861 H          1  LIG1   0.1700
     12 C7        -16.6250    16.8249   -20.4074 C.3        1  LIG1  -0.1800
     13 C8        -16.3539    15.8585   -18.1399 C.2        1  LIG1   0.5100
     14 O2        -15.3501    16.5379   -18.0991 O.2        1  LIG1  -0.5000
     15 N2        -16.6893    15.0879   -17.0863 N.am       1  LIG1  -0.6400
     16 C9        -15.8816    15.0715   -15.9485 C.ar       1  LIG1   0.1700
     17 C10       -15.1535    16.2041   -15.5984 C.ar       1  LIG1  -0.1100
     18 C11       -14.3548    16.1925   -14.4769 C.ar       1  LIG1  -0.0400
     19 C12       -14.2759    15.0409   -13.6888 C.ar       1  LIG1  -0.0100
     20 C13       -13.4466    15.0252   -12.5214 C.1        1  LIG1   0.2300
     21 N3        -12.7888    15.0128   -11.5954 N.1        1  LIG1  -0.3700
     22 C14       -15.0097    13.9035   -14.0432 C.ar       1  LIG1   0.0200
     23 Cl1       -14.9168    12.4700   -13.0684 Cl         1  LIG1  -0.0300
     24 C15       -15.8110    13.9251   -15.1646 C.ar       1  LIG1  -0.1300
     25 C16       -19.4221    16.3984   -20.2088 C.3        1  LIG1   0.0000
     26 C17       -20.8492    16.2741   -19.9285 C.3        1  LIG1  -0.1500
     27 H4        -24.3936    18.1292   -20.1750 H          1  LIG1   0.0500
     28 H5        -22.9447    19.1589   -20.2687 H          1  LIG1   0.0500
     29 H6        -22.9820    17.5955   -21.1189 H          1  LIG1   0.1000
     30 H7        -21.6263    17.6154   -16.9362 H          1  LIG1   0.1000
     31 H8        -20.8060    16.1321   -17.4461 H          1  LIG1   0.0700
     32 H9        -19.6659    18.9203   -17.1403 H          1  LIG1   0.1100
     33 H10       -19.1129    17.4072   -16.4032 H          1  LIG1   0.1000
     34 H11       -18.7125    18.3950   -19.2376 H          1  LIG1   0.1300
     35 H12       -17.4976    17.8430   -18.0664 H          1  LIG1   0.1400
     36 H13       -15.6255    16.4830   -20.6764 H          1  LIG1   0.0900
     37 H14       -17.2560    16.8377   -21.2962 H          1  LIG1   0.1100
     38 H15       -16.5650    17.8300   -19.9899 H          1  LIG1   0.1000
     39 H16       -17.4921    14.5445   -17.1189 H          1  LIG1   0.4200
     40 H17       -15.2146    17.0939   -16.2076 H          1  LIG1   0.1500
     41 H18       -13.7895    17.0722   -14.2067 H          1  LIG1   0.1500
     42 H19       -16.3780    13.0480   -15.4394 H          1  LIG1   0.1500
     43 H20       -19.2481    17.3505   -20.7099 H          1  LIG1   0.1300
     44 H21       -19.1284    15.5943   -20.8837 H          1  LIG1   0.1400
     45 H22       -21.0324    15.3285   -19.4184 H          1  LIG1   0.1000
     46 H23       -21.4005    16.2850   -20.8687 H          1  LIG1   0.1300
@<TRIPOS>BOND
     1    1    2 1
     2    1   27 1
     3    1   28 1
     4    1   29 1
     5    2    3 1
     6    3    4 1
     7    3   26 1
     8    3    5 1
     9    5    6 1
    10    5   30 1
    11    5   31 1
    12    6    7 1
    13    6   32 1
    14    6   33 1
    15    7    8 1
    16    7   34 1
    17    7   35 1
    18    8    9 1
    19    8   10 1
    20    8   25 1
    21   10   11 1
    22   10   12 1
    23   10   13 1
    24   12   36 1
    25   12   37 1
    26   12   38 1
    27   13   14 2
    28   13   15 am
    29   15   16 1
    30   15   39 1
    31   16   24 ar
    32   16   17 ar
    33   17   18 ar
    34   17   40 1
    35   18   19 ar
    36   18   41 1
    37   19   20 1
    38   19   22 ar
    39   20   21 3
    40   22   23 1
    41   22   24 ar
    42   24   42 1
    43   25   26 1
    44   25   43 1
    45   25   44 1
    46   26   45 1
    47   26   46 1
##########                 Name:     ZINC000609076791
##########          Protonation:                 none
##########               SMILES:   CC1=CC=C(C(=O)NC[C@@H](C)[NH+]2CCCC2)C=C1I
##########            Long Name:   NO_LONG_NAME
##########          FlexRecCode: 1
##########               Number:                16712
##########   Ligand Source File: /nfs/db/export/3D/FF/ADRO/FFADRO.xamy.db2.gz
##########                 Rank:                    1
##########               Setnum:                  143
##########             Matchnum:                    1
##########                Cloud:                    1
##########        Electrostatic:           -43.695103
##########                 Gist:             0.000000
##########        Van der Waals:           -29.955318
##########  Ligand Polar Desolv:            13.068038
########## Ligand Apolar Desolv:            -5.204965
##########      Internal Energy:             0.000000
##########      Receptor Energy:             0.000000
########## Receptor Desolvation:             0.000000
########## Receptor Hydrophobic:             0.000000
##########         Total Energy:           -65.787346
##########        Ligand Charge:             1.000000
##########            Arbitrary:    +999.9990
##########        Ligand Energy:             0.000000

@<TRIPOS>MOLECULE
 ZINC000609076791      none
   41    42     0     0     0



@<TRIPOS>ATOM
      1 C1        -14.3798    12.0514   -12.9350 C.3        1  LIG1  -0.1400
      2 C2        -14.8032    13.2794   -13.6988 C.ar       1  LIG1  -0.0100
      3 C3        -15.7653    13.1777   -14.6876 C.ar       1  LIG1  -0.1200
      4 C4        -16.1575    14.2982   -15.3908 C.ar       1  LIG1  -0.0300
      5 C5        -15.5819    15.5365   -15.1025 C.ar       1  LIG1  -0.1500
      6 C6        -15.9980    16.7411   -15.8519 C.2        1  LIG1   0.5700
      7 O1        -15.2271    17.6716   -15.9832 O.2        1  LIG1  -0.5200
      8 N1        -17.2322    16.8075   -16.3893 N.am       1  LIG1  -0.7300
      9 C7        -17.6445    18.0012   -17.1318 C.3        1  LIG1   0.1000
     10 C8        -18.0008    17.6109   -18.5677 C.3        1  LIG1   0.0200
     11 H1        -18.3075    18.4990   -19.1201 H          1  LIG1   0.1400
     12 C9        -16.7792    16.9859   -19.2444 C.3        1  LIG1  -0.1900
     13 N2        -19.1024    16.6392   -18.5520 N.4        1  LIG1  -0.3900
     14 H2        -18.8299    15.8119   -18.0426 H          1  LIG1   0.4300
     15 C10       -20.3107    17.2448   -17.9361 C.3        1  LIG1  -0.0100
     16 C11       -21.4656    16.3719   -18.4883 C.3        1  LIG1  -0.1400
     17 C12       -21.0158    16.0807   -19.9385 C.3        1  LIG1  -0.1400
     18 C13       -19.4882    16.2832   -19.9347 C.3        1  LIG1  -0.0100
     19 C14       -14.6119    15.6328   -14.1033 C.ar       1  LIG1  -0.0500
     20 C15       -14.2320    14.5054   -13.4041 C.ar       1  LIG1  -0.1200
     21 I1        -12.7769    14.6471   -11.9034 I          1  LIG1  -0.0200
     22 H3        -14.9325    11.1865   -13.3021 H          1  LIG1   0.0900
     23 H4        -13.3115    11.8863   -13.0756 H          1  LIG1   0.0800
     24 H5        -14.5891    12.1928   -11.8747 H          1  LIG1   0.0800
     25 H6        -16.2101    12.2190   -14.9099 H          1  LIG1   0.1500
     26 H7        -16.9082    14.2172   -16.1630 H          1  LIG1   0.1500
     27 H8        -17.8475    16.0651   -16.2845 H          1  LIG1   0.4100
     28 H9        -18.5148    18.4465   -16.6498 H          1  LIG1   0.0900
     29 H10       -16.8271    18.7222   -17.1436 H          1  LIG1   0.0900
     30 H11       -17.0329    16.7078   -20.2673 H          1  LIG1   0.0900
     31 H12       -15.9618    17.7068   -19.2560 H          1  LIG1   0.0900
     32 H13       -16.4725    16.0978   -18.6919 H          1  LIG1   0.1000
     33 H14       -20.2635    17.1776   -16.8491 H          1  LIG1   0.1400
     34 H15       -20.4262    18.2812   -18.2537 H          1  LIG1   0.1300
     35 H16       -21.5557    15.4467   -17.9192 H          1  LIG1   0.1000
     36 H17       -22.4050    16.9246   -18.4795 H          1  LIG1   0.1200
     37 H18       -21.2597    15.0540   -20.2112 H          1  LIG1   0.1100
     38 H19       -21.4889    16.7790   -20.6287 H          1  LIG1   0.1000
     39 H20       -19.2191    17.0919   -20.6142 H          1  LIG1   0.1300
     40 H21       -18.9907    15.3612   -20.2350 H          1  LIG1   0.1300
     41 H22       -14.1625    16.5881   -13.8756 H          1  LIG1   0.1300
@<TRIPOS>BOND
     1    1    2 1
     2    1   22 1
     3    1   23 1
     4    1   24 1
     5    2   20 ar
     6    2    3 ar
     7    3    4 ar
     8    3   25 1
     9    4    5 ar
    10    4   26 1
    11    5    6 1
    12    5   19 ar
    13    6    7 2
    14    6    8 am
    15    8    9 1
    16    8   27 1
    17    9   10 1
    18    9   28 1
    19    9   29 1
    20   10   11 1
    21   10   12 1
    22   10   13 1
    23   12   30 1
    24   12   31 1
    25   12   32 1
    26   13   14 1
    27   13   18 1
    28   13   15 1
    29   15   16 1
    30   15   33 1
    31   15   34 1
    32   16   17 1
    33   16   35 1
    34   16   36 1
    35   17   18 1
    36   17   37 1
    37   17   38 1
    38   18   39 1
    39   18   40 1
    40   19   20 ar
    41   19   41 1
    42   20   21 1
##########                 Name:     ZINC000359552375
##########          Protonation:                 none
##########               SMILES:   C[C@H](C(=O)NCC1=CC=C(F)C=C1)[N@H+]1CC[C@]2(CC[C@@H](C)C2)C1
##########            Long Name:   NO_LONG_NAME
##########          FlexRecCode: 1
##########               Number:                11847
##########   Ligand Source File: /nfs/db/export/3D/DG/ADMO/DGADMO.xapl.db2.gz
##########                 Rank:                    1
##########               Setnum:                   40
##########             Matchnum:                    1
##########                Cloud:                    1
##########        Electrostatic:           -43.816898
##########                 Gist:             0.000000
##########        Van der Waals:           -32.515831
##########  Ligand Polar Desolv:            12.350917
########## Ligand Apolar Desolv:            -6.198484
##########      Internal Energy:             0.000000
##########      Receptor Energy:             0.000000
########## Receptor Desolvation:             0.000000
########## Receptor Hydrophobic:             0.000000
##########         Total Energy:           -70.180298
##########        Ligand Charge:             1.000000
##########            Arbitrary:    +999.9990
##########        Ligand Energy:             0.000000

@<TRIPOS>MOLECULE
 ZINC000359552375      none
   51    53     0     0     0



@<TRIPOS>ATOM
      1 C1        -16.4731    16.2184   -19.2556 C.3        1  LIG1  -0.1800
      2 C2        -17.2625    17.0482   -18.2409 C.3        1  LIG1   0.0100
      3 H1        -17.3277    18.0797   -18.5872 H          1  LIG1   0.1600
      4 C3        -16.5623    17.0094   -16.9070 C.2        1  LIG1   0.5100
      5 O1        -16.6507    17.9513   -16.1480 O.2        1  LIG1  -0.5200
      6 N1        -15.8376    15.9280   -16.5574 N.am       1  LIG1  -0.7000
      7 C4        -15.1569    15.8903   -15.2607 C.3        1  LIG1   0.1600
      8 C5        -15.0669    14.4643   -14.7820 C.ar       1  LIG1  -0.1400
      9 C6        -14.0127    14.0706   -13.9790 C.ar       1  LIG1  -0.0700
     10 C7        -13.9288    12.7631   -13.5394 C.ar       1  LIG1  -0.1500
     11 C8        -14.9017    11.8474   -13.9031 C.ar       1  LIG1   0.1200
     12 F1        -14.8212    10.5690   -13.4736 F          1  LIG1  -0.1300
     13 C9        -15.9573    12.2430   -14.7069 C.ar       1  LIG1  -0.1500
     14 C10       -16.0415    13.5522   -15.1414 C.ar       1  LIG1  -0.0700
     15 N2        -18.6150    16.4925   -18.1002 N.4        1  LIG1  -0.3800
     16 H2        -18.5673    15.5368   -17.7798 H          1  LIG1   0.4300
     17 C11       -19.4095    17.3126   -17.1492 C.3        1  LIG1  -0.0100
     18 C12       -20.8763    16.9904   -17.5375 C.3        1  LIG1  -0.1300
     19 C13       -20.8005    16.8606   -19.0682 C.3        1  LIG1  -0.0800
     20 C14       -21.7117    15.7275   -19.5592 C.3        1  LIG1  -0.1200
     21 C15       -23.0038    16.4554   -20.0127 C.3        1  LIG1  -0.1200
     22 C16       -22.4596    17.7604   -20.6471 C.3        1  LIG1  -0.1000
     23 H3        -22.1233    17.5770   -21.6675 H          1  LIG1   0.0800
     24 C17       -23.5305    18.8529   -20.6259 C.3        1  LIG1  -0.1500
     25 C18       -21.2667    18.1511   -19.7467 C.3        1  LIG1  -0.1100
     26 C19       -19.3328    16.5619   -19.3941 C.3        1  LIG1   0.0000
     27 H4        -16.4079    15.1869   -18.9092 H          1  LIG1   0.1000
     28 H5        -16.9795    16.2466   -20.2202 H          1  LIG1   0.1100
     29 H6        -15.4695    16.6307   -19.3598 H          1  LIG1   0.0900
     30 H7        -15.7669    15.1748   -17.1644 H          1  LIG1   0.4100
     31 H8        -14.1533    16.3027   -15.3651 H          1  LIG1   0.0900
     32 H9        -15.7192    16.4816   -14.5378 H          1  LIG1   0.0900
     33 H10       -13.2539    14.7850   -13.6954 H          1  LIG1   0.1400
     34 H11       -13.1047    12.4556   -12.9127 H          1  LIG1   0.1400
     35 H12       -16.7166    11.5294   -14.9915 H          1  LIG1   0.1400
     36 H13       -16.8650    13.8610   -15.7682 H          1  LIG1   0.1400
     37 H14       -19.2090    17.0111   -16.1210 H          1  LIG1   0.1500
     38 H15       -19.1993    18.3732   -17.2876 H          1  LIG1   0.1300
     39 H16       -21.1984    16.0522   -17.0856 H          1  LIG1   0.1000
     40 H17       -21.5399    17.8064   -17.2513 H          1  LIG1   0.1200
     41 H18       -21.2530    15.2046   -20.3984 H          1  LIG1   0.0800
     42 H19       -21.9292    15.0331   -18.7477 H          1  LIG1   0.0800
     43 H20       -23.5418    15.8620   -20.7520 H          1  LIG1   0.0800
     44 H21       -23.6414    16.6788   -19.1573 H          1  LIG1   0.0700
     45 H22       -23.1311    19.7621   -21.0751 H          1  LIG1   0.0600
     46 H23       -24.4005    18.5200   -21.1919 H          1  LIG1   0.0600
     47 H24       -23.8230    19.0551   -19.5955 H          1  LIG1   0.0600
     48 H25       -21.5851    18.8749   -18.9964 H          1  LIG1   0.0800
     49 H26       -20.4616    18.5680   -20.3519 H          1  LIG1   0.0700
     50 H27       -18.9170    17.3612   -20.0077 H          1  LIG1   0.1300
     51 H28       -19.2535    15.6095   -19.9181 H          1  LIG1   0.1400
@<TRIPOS>BOND
     1    1    2 1
     2    1   27 1
     3    1   28 1
     4    1   29 1
     5    2    3 1
     6    2    4 1
     7    2   15 1
     8    4    5 2
     9    4    6 am
    10    6    7 1
    11    6   30 1
    12    7    8 1
    13    7   31 1
    14    7   32 1
    15    8   14 ar
    16    8    9 ar
    17    9   10 ar
    18    9   33 1
    19   10   11 ar
    20   10   34 1
    21   11   12 1
    22   11   13 ar
    23   13   14 ar
    24   13   35 1
    25   14   36 1
    26   15   16 1
    27   15   26 1
    28   15   17 1
    29   17   18 1
    30   17   37 1
    31   17   38 1
    32   18   19 1
    33   18   39 1
    34   18   40 1
    35   19   25 1
    36   19   20 1
    37   19   26 1
    38   20   21 1
    39   20   41 1
    40   20   42 1
    41   21   22 1
    42   21   43 1
    43   21   44 1
    44   22   23 1
    45   22   24 1
    46   22   25 1
    47   24   45 1
    48   24   46 1
    49   24   47 1
    50   25   48 1
    51   25   49 1
    52   26   50 1
    53   26   51 1
##########                 Name:     ZINC000377628890
##########          Protonation:                 none
##########               SMILES:   COC1=CC=CC(C[NH2+]C2CC(C3=CC=CC(C)=C3)C2)=C1O
##########            Long Name:   NO_LONG_NAME
##########          FlexRecCode: 1
##########               Number:                 1046
##########   Ligand Source File: /nfs/db/export/3D/CH/CDRO/CHCDRO.xaa.db2.gz
##########                 Rank:                    1
##########               Setnum:                  140
##########             Matchnum:                    1
##########                Cloud:                    1
##########        Electrostatic:           -40.854919
##########                 Gist:             0.000000
##########        Van der Waals:           -32.785961
##########  Ligand Polar Desolv:            13.546968
########## Ligand Apolar Desolv:            -5.801404
##########      Internal Energy:             0.000000
##########      Receptor Energy:             0.000000
########## Receptor Desolvation:             0.000000
########## Receptor Hydrophobic:             0.000000
##########         Total Energy:           -65.895317
##########        Ligand Charge:             1.000000
##########            Arbitrary:    +999.9990
##########        Ligand Energy:             0.000000

@<TRIPOS>MOLECULE
 ZINC000377628890      none
   46    48     0     0     0



@<TRIPOS>ATOM
      1 C1        -23.6099    18.8085   -21.1278 C.3        1  LIG1   0.0200
      2 O1        -22.8356    17.6081   -21.1659 O.3        1  LIG1  -0.3000
      3 C2        -22.4400    17.0905   -19.9721 C.ar       1  LIG1   0.1100
      4 C3        -23.2411    16.1719   -19.3140 C.ar       1  LIG1  -0.1700
      5 C4        -22.8370    15.6463   -18.1004 C.ar       1  LIG1  -0.0800
      6 C5        -21.6348    16.0359   -17.5410 C.ar       1  LIG1  -0.1100
      7 C6        -20.8304    16.9530   -18.1926 C.ar       1  LIG1  -0.1500
      8 C7        -19.5202    17.3754   -17.5797 C.3        1  LIG1   0.0600
      9 N1        -18.4520    16.4794   -18.0418 N.4        1  LIG1  -0.5000
     10 H1        -18.6633    15.5326   -17.7642 H          1  LIG1   0.4300
     11 H2        -18.3840    16.5278   -19.0474 H          1  LIG1   0.4300
     12 C8        -17.1746    16.8912   -17.4444 C.3        1  LIG1  -0.0100
     13 C9        -17.1528    16.7945   -15.9098 C.3        1  LIG1  -0.1400
     14 C10       -15.7160    16.2626   -16.0422 C.3        1  LIG1  -0.0500
     15 C11       -15.3982    15.1386   -15.0900 C.ar       1  LIG1  -0.0900
     16 C12       -16.1275    13.9655   -15.1378 C.ar       1  LIG1  -0.1300
     17 C13       -15.8360    12.9342   -14.2643 C.ar       1  LIG1  -0.1100
     18 C14       -14.8149    13.0762   -13.3435 C.ar       1  LIG1  -0.1100
     19 C15       -14.0849    14.2493   -13.2964 C.ar       1  LIG1  -0.0700
     20 C16       -12.9721    14.4044   -12.2921 C.3        1  LIG1  -0.1200
     21 C17       -14.3736    15.2787   -14.1725 C.ar       1  LIG1  -0.1100
     22 C18       -16.1065    15.7849   -17.4509 C.3        1  LIG1  -0.1400
     23 C19       -21.2265    17.4786   -19.4115 C.ar       1  LIG1   0.0900
     24 O2        -20.4367    18.3806   -20.0535 O.3        1  LIG1  -0.4900
     25 H3        -23.8587    19.1127   -22.1446 H          1  LIG1   0.1100
     26 H4        -24.5276    18.6314   -20.5669 H          1  LIG1   0.0600
     27 H5        -23.0342    19.5971   -20.6431 H          1  LIG1   0.0600
     28 H6        -24.1814    15.8663   -19.7486 H          1  LIG1   0.1500
     29 H7        -23.4626    14.9300   -17.5884 H          1  LIG1   0.1400
     30 H8        -21.3228    15.6234   -16.5929 H          1  LIG1   0.1400
     31 H9        -19.2917    18.3982   -17.8796 H          1  LIG1   0.1400
     32 H10       -19.5936    17.3232   -16.4933 H          1  LIG1   0.1400
     33 H11       -16.8163    17.8464   -17.8282 H          1  LIG1   0.1600
     34 H12       -17.2162    17.7612   -15.4105 H          1  LIG1   0.1000
     35 H13       -17.8540    16.0629   -15.5083 H          1  LIG1   0.1100
     36 H14       -14.9583    17.0462   -16.0398 H          1  LIG1   0.1200
     37 H15       -16.9252    13.8545   -15.8572 H          1  LIG1   0.1100
     38 H16       -16.4063    12.0178   -14.3012 H          1  LIG1   0.1300
     39 H17       -14.5877    12.2709   -12.6607 H          1  LIG1   0.1300
     40 H18       -12.5153    15.3877   -12.4050 H          1  LIG1   0.0800
     41 H19       -13.3755    14.3046   -11.2844 H          1  LIG1   0.0700
     42 H20       -12.2204    13.6333   -12.4607 H          1  LIG1   0.0700
     43 H21       -13.8032    16.1951   -14.1356 H          1  LIG1   0.1200
     44 H22       -16.5216    14.7773   -17.4708 H          1  LIG1   0.1100
     45 H23       -15.3252    15.9366   -18.1955 H          1  LIG1   0.1100
     46 H24       -19.6153    18.5869   -19.5865 H          1  LIG1   0.4000
@<TRIPOS>BOND
     1    1    2 1
     2    1   25 1
     3    1   26 1
     4    1   27 1
     5    2    3 1
     6    3   23 ar
     7    3    4 ar
     8    4    5 ar
     9    4   28 1
    10    5    6 ar
    11    5   29 1
    12    6    7 ar
    13    6   30 1
    14    7    8 1
    15    7   23 ar
    16    8    9 1
    17    8   31 1
    18    8   32 1
    19    9   10 1
    20    9   11 1
    21    9   12 1
    22   12   22 1
    23   12   13 1
    24   12   33 1
    25   13   14 1
    26   13   34 1
    27   13   35 1
    28   14   15 1
    29   14   22 1
    30   14   36 1
    31   15   21 ar
    32   15   16 ar
    33   16   17 ar
    34   16   37 1
    35   17   18 ar
    36   17   38 1
    37   18   19 ar
    38   18   39 1
    39   19   20 1
    40   19   21 ar
    41   20   40 1
    42   20   41 1
    43   20   42 1
    44   21   43 1
    45   22   44 1
    46   22   45 1
    47   23   24 1
    48   24   46 1
##########                 Name:     ZINC000179028195
##########          Protonation:                 none
##########               SMILES:   O[C@]1(C[NH2+]CC2=CN(C3=CC=CC=C3)N=C2C2=CC=CS2)CCOC1
##########            Long Name:   NO_LONG_NAME
##########          FlexRecCode: 1
##########               Number:                 9245
##########   Ligand Source File: /nfs/db/export/3D/FF/ADRO/FFADRO.xaqf.db2.gz
##########                 Rank:                    1
##########               Setnum:                  468
##########             Matchnum:                    1
##########                Cloud:                    1
##########        Electrostatic:           -43.090878
##########                 Gist:             0.000000
##########        Van der Waals:           -37.695786
##########  Ligand Polar Desolv:            16.709488
########## Ligand Apolar Desolv:            -3.326366
##########      Internal Energy:             0.000000
##########      Receptor Energy:             0.000000
########## Receptor Desolvation:             0.000000
########## Receptor Hydrophobic:             0.000000
##########         Total Energy:           -67.403542
##########        Ligand Charge:             1.000000
##########            Arbitrary:    +999.9990
##########        Ligand Energy:             0.000000

@<TRIPOS>MOLECULE
 ZINC000179028195      none
   47    50     0     0     0



@<TRIPOS>ATOM
      1 O1        -21.2758    16.2150   -16.9192 O.3        1  LIG1  -0.5500
      2 C1        -20.9638    16.8910   -18.1388 C.3        1  LIG1   0.0800
      3 C2        -19.6749    17.7011   -17.9865 C.3        1  LIG1   0.0100
      4 N1        -18.7020    16.9303   -17.2008 N.4        1  LIG1  -0.5100
      5 H1        -19.0861    16.7346   -16.2885 H          1  LIG1   0.4400
      6 H2        -18.4999    16.0622   -17.6738 H          1  LIG1   0.4100
      7 C3        -17.4644    17.7079   -17.0546 C.3        1  LIG1   0.0800
      8 C4        -16.4664    16.9171   -16.2485 C.2        1  LIG1  -0.3000
      9 C5        -16.6580    15.6822   -15.7370 C.2        1  LIG1   0.1200
     10 N2        -15.5244    15.3215   -15.0802 N.pl3      1  LIG1  -0.2900
     11 C6        -15.3125    14.1107   -14.4086 C.ar       1  LIG1   0.1300
     12 C7        -14.4689    14.0648   -13.3065 C.ar       1  LIG1  -0.1300
     13 C8        -14.2623    12.8694   -12.6461 C.ar       1  LIG1  -0.0900
     14 C9        -14.8941    11.7191   -13.0817 C.ar       1  LIG1  -0.1100
     15 C10       -15.7348    11.7615   -14.1789 C.ar       1  LIG1  -0.0900
     16 C11       -15.9499    12.9549   -14.8400 C.ar       1  LIG1  -0.1100
     17 N3        -14.6047    16.3722   -15.1925 N.2        1  LIG1  -0.2400
     18 C12       -15.1645    17.3333   -15.8996 C.2        1  LIG1   0.1700
     19 C13       -14.5405    18.6254   -16.2570 C.2        1  LIG1  -0.1400
     20 C14       -13.6082    19.2680   -15.5259 C.2        1  LIG1  -0.0700
     21 C15       -13.1746    20.4620   -16.0652 C.2        1  LIG1  -0.1300
     22 C16       -13.7432    20.7981   -17.2263 C.2        1  LIG1  -0.1500
     23 S1        -14.8942    19.5579   -17.7058 S.3        1  LIG1   0.0300
     24 C17       -22.1339    17.8052   -18.5658 C.3        1  LIG1  -0.1800
     25 C18       -22.5728    17.2390   -19.9343 C.3        1  LIG1   0.0400
     26 O2        -22.1382    15.8616   -19.9202 O.3        1  LIG1  -0.3500
     27 C19       -20.8340    15.8805   -19.3001 C.3        1  LIG1   0.0000
     28 H3        -20.6116    15.5667   -16.6477 H          1  LIG1   0.4100
     29 H4        -19.2599    17.9125   -18.9721 H          1  LIG1   0.1500
     30 H5        -19.8932    18.6387   -17.4756 H          1  LIG1   0.1500
     31 H6        -17.0495    17.9193   -18.0401 H          1  LIG1   0.1400
     32 H7        -17.6827    18.6456   -16.5435 H          1  LIG1   0.1500
     33 H8        -17.5540    15.0867   -15.8327 H          1  LIG1   0.2000
     34 H9        -13.9745    14.9627   -12.9662 H          1  LIG1   0.1300
     35 H10       -13.6063    12.8330   -11.7889 H          1  LIG1   0.1400
     36 H11       -14.7305    10.7854   -12.5640 H          1  LIG1   0.1400
     37 H12       -16.2266    10.8613   -14.5167 H          1  LIG1   0.1400
     38 H13       -16.6069    12.9874   -15.6965 H          1  LIG1   0.1400
     39 H14       -13.2308    18.8794   -14.5916 H          1  LIG1   0.1600
     40 H15       -12.4307    21.0794   -15.5837 H          1  LIG1   0.1600
     41 H16       -13.5257    21.6944   -17.7882 H          1  LIG1   0.1800
     42 H17       -22.9505    17.7416   -17.8464 H          1  LIG1   0.1100
     43 H18       -21.7950    18.8360   -18.6698 H          1  LIG1   0.1000
     44 H19       -23.6565    17.2939   -20.0379 H          1  LIG1   0.1100
     45 H20       -22.0853    17.7823   -20.7439 H          1  LIG1   0.0700
     46 H21       -20.0801    16.2156   -20.0122 H          1  LIG1   0.0700
     47 H22       -20.5820    14.8919   -18.9163 H          1  LIG1   0.1100
@<TRIPOS>BOND
     1    1    2 1
     2    1   28 1
     3    2   27 1
     4    2    3 1
     5    2   24 1
     6    3    4 1
     7    3   29 1
     8    3   30 1
     9    4    5 1
    10    4    6 1
    11    4    7 1
    12    7    8 1
    13    7   31 1
    14    7   32 1
    15    8   18 1
    16    8    9 2
    17    9   10 1
    18    9   33 1
    19   10   11 1
    20   10   17 1
    21   11   16 ar
    22   11   12 ar
    23   12   13 ar
    24   12   34 1
    25   13   14 ar
    26   13   35 1
    27   14   15 ar
    28   14   36 1
    29   15   16 ar
    30   15   37 1
    31   16   38 1
    32   17   18 2
    33   18   19 1
    34   19   23 1
    35   19   20 2
    36   20   21 1
    37   20   39 1
    38   21   22 2
    39   21   40 1
    40   22   23 1
    41   22   41 1
    42   24   25 1
    43   24   42 1
    44   24   43 1
    45   25   26 1
    46   25   44 1
    47   25   45 1
    48   26   27 1
    49   27   46 1
    50   27   47 1
##########                 Name:     ZINC000363377421
##########          Protonation:                 none
##########               SMILES:   C[C@@H](NC(=O)C[N@@H+]1CCCOCC1)C1=CC=C2C=CC=CC2=C1
##########            Long Name:   NO_LONG_NAME
##########          FlexRecCode: 1
##########               Number:                 7140
##########   Ligand Source File: /nfs/db/export/3D/DF/ADMO/DFADMO.xcc.db2.gz
##########                 Rank:                    1
##########               Setnum:                   38
##########             Matchnum:                    1
##########                Cloud:                    1
##########        Electrostatic:           -47.543823
##########                 Gist:             0.000000
##########        Van der Waals:           -30.061930
##########  Ligand Polar Desolv:            18.066586
########## Ligand Apolar Desolv:            -5.232690
##########      Internal Energy:             0.000000
##########      Receptor Energy:             0.000000
########## Receptor Desolvation:             0.000000
########## Receptor Hydrophobic:             0.000000
##########         Total Energy:           -64.771858
##########        Ligand Charge:             1.000000
##########            Arbitrary:    +999.9990
##########        Ligand Energy:             0.000000

@<TRIPOS>MOLECULE
 ZINC000363377421      none
   48    50     0     0     0



@<TRIPOS>ATOM
      1 C1        -15.6294    16.2327   -18.2824 C.3        1  LIG1  -0.1600
      2 C2        -16.2450    16.3779   -16.8892 C.3        1  LIG1   0.1900
      3 H1        -15.9746    17.3479   -16.4718 H          1  LIG1   0.1100
      4 N1        -17.7033    16.2777   -16.9869 N.am       1  LIG1  -0.6900
      5 C3        -18.4403    17.3810   -17.2231 C.2        1  LIG1   0.5000
      6 O1        -17.8963    18.4570   -17.3547 O.2        1  LIG1  -0.5300
      7 C4        -19.9404    17.2778   -17.3236 C.3        1  LIG1  -0.0400
      8 N2        -20.3054    16.3479   -18.4515 N.4        1  LIG1  -0.3500
      9 H2        -19.8529    15.3927   -18.1855 H          1  LIG1   0.4200
     10 C5        -19.6821    16.7019   -19.7837 C.3        1  LIG1   0.0000
     11 C6        -20.1568    18.0427   -20.3272 C.3        1  LIG1  -0.1900
     12 C7        -21.5197    18.0210   -21.0174 C.3        1  LIG1   0.0500
     13 O2        -22.4561    17.0814   -20.5135 O.3        1  LIG1  -0.3700
     14 C8        -22.6172    17.1025   -19.1017 C.3        1  LIG1   0.0600
     15 C9        -21.7724    15.9985   -18.4917 C.3        1  LIG1  -0.0800
     16 C10       -15.7251    15.2830   -15.9938 C.ar       1  LIG1  -0.1100
     17 C11       -15.9553    13.9514   -16.3333 C.ar       1  LIG1  -0.1200
     18 C12       -15.4994    12.9386   -15.5464 C.ar       1  LIG1  -0.0900
     19 C13       -14.7855    13.2368   -14.3736 C.ar       1  LIG1  -0.0500
     20 C14       -14.2986    12.2183   -13.5364 C.ar       1  LIG1  -0.1100
     21 C15       -13.6109    12.5450   -12.4085 C.ar       1  LIG1  -0.1100
     22 C16       -13.3807    13.8771   -12.0688 C.ar       1  LIG1  -0.1100
     23 C17       -13.8369    14.8897   -12.8552 C.ar       1  LIG1  -0.1100
     24 C18       -14.5514    14.5914   -14.0282 C.ar       1  LIG1  -0.0500
     25 C19       -15.0327    15.6096   -14.8682 C.ar       1  LIG1  -0.0800
     26 H3        -15.8998    15.2628   -18.6999 H          1  LIG1   0.0800
     27 H4        -16.0054    17.0247   -18.9301 H          1  LIG1   0.0700
     28 H5        -14.5444    16.3073   -18.2099 H          1  LIG1   0.0700
     29 H6        -18.1384    15.4172   -16.8817 H          1  LIG1   0.4100
     30 H7        -20.3414    16.8888   -16.3877 H          1  LIG1   0.1600
     31 H8        -20.3603    18.2650   -17.5162 H          1  LIG1   0.1600
     32 H9        -18.5878    16.7235   -19.6617 H          1  LIG1   0.1400
     33 H10       -19.9277    15.9070   -20.5055 H          1  LIG1   0.1400
     34 H11       -20.1870    18.7628   -19.4888 H          1  LIG1   0.1300
     35 H12       -19.3966    18.4143   -21.0389 H          1  LIG1   0.0900
     36 H13       -21.9618    19.0359   -20.9510 H          1  LIG1   0.1100
     37 H14       -21.3624    17.8238   -22.0972 H          1  LIG1   0.0800
     38 H15       -22.2985    18.0754   -18.7262 H          1  LIG1   0.1300
     39 H16       -23.6708    16.9488   -18.8660 H          1  LIG1   0.0700
     40 H17       -21.8440    15.0845   -19.0717 H          1  LIG1   0.1600
     41 H18       -22.0640    15.8038   -17.4653 H          1  LIG1   0.1300
     42 H19       -16.5041    13.7195   -17.2341 H          1  LIG1   0.1200
     43 H20       -15.6857    11.9111   -15.8220 H          1  LIG1   0.1300
     44 H21       -14.4697    11.1817   -13.7867 H          1  LIG1   0.1300
     45 H22       -13.2382    11.7604   -11.7666 H          1  LIG1   0.1300
     46 H23       -12.8324    14.1090   -11.1677 H          1  LIG1   0.1300
     47 H24       -13.6514    15.9172   -12.5791 H          1  LIG1   0.1300
     48 H25       -14.8576    16.6461   -14.6201 H          1  LIG1   0.1300
@<TRIPOS>BOND
     1    1    2 1
     2    1   26 1
     3    1   27 1
     4    1   28 1
     5    2    3 1
     6    2    4 1
     7    2   16 1
     8    4    5 am
     9    4   29 1
    10    5    6 2
    11    5    7 1
    12    7    8 1
    13    7   30 1
    14    7   31 1
    15    8    9 1
    16    8   15 1
    17    8   10 1
    18   10   11 1
    19   10   32 1
    20   10   33 1
    21   11   12 1
    22   11   34 1
    23   11   35 1
    24   12   13 1
    25   12   36 1
    26   12   37 1
    27   13   14 1
    28   14   15 1
    29   14   38 1
    30   14   39 1
    31   15   40 1
    32   15   41 1
    33   16   25 ar
    34   16   17 ar
    35   17   18 ar
    36   17   42 1
    37   18   19 ar
    38   18   43 1
    39   19   24 ar
    40   19   20 ar
    41   20   21 ar
    42   20   44 1
    43   21   22 ar
    44   21   45 1
    45   22   23 ar
    46   22   46 1
    47   23   24 ar
    48   23   47 1
    49   24   25 ar
    50   25   48 1
##########                 Name:     ZINC000135539613
##########          Protonation:                 none
##########               SMILES:   O=C(C[N@@H+]1CCS[C@H]2COCC[C@@H]21)NC1=CC=C(Br)C=C1
##########            Long Name:   NO_LONG_NAME
##########          FlexRecCode: 1
##########               Number:                 6135
##########   Ligand Source File: /nfs/db/export/3D/FF/ADMO/FFADMO.xbcd.db2.gz
##########                 Rank:                    1
##########               Setnum:                   27
##########             Matchnum:                    1
##########                Cloud:                    1
##########        Electrostatic:           -51.621696
##########                 Gist:             0.000000
##########        Van der Waals:           -29.142544
##########  Ligand Polar Desolv:            16.471907
########## Ligand Apolar Desolv:            -3.631894
##########      Internal Energy:             0.000000
##########      Receptor Energy:             0.000000
########## Receptor Desolvation:             0.000000
########## Receptor Hydrophobic:             0.000000
##########         Total Energy:           -67.924225
##########        Ligand Charge:             1.000000
##########            Arbitrary:    +999.9990
##########        Ligand Energy:             0.000000

@<TRIPOS>MOLECULE
 ZINC000135539613      none
   41    43     0     0     0



@<TRIPOS>ATOM
      1 O1        -16.3122    17.8118   -17.2076 O.2        1  LIG1  -0.5100
      2 C1        -17.2356    17.0278   -17.1448 C.2        1  LIG1   0.5100
      3 C2        -18.4987    17.2874   -17.9245 C.3        1  LIG1  -0.0500
      4 N1        -18.7320    16.1806   -18.8617 N.4        1  LIG1  -0.3600
      5 H1        -18.8253    15.3205   -18.3422 H          1  LIG1   0.4400
      6 C3        -17.5895    16.0716   -19.7717 C.3        1  LIG1  -0.0200
      7 C4        -17.2106    17.4567   -20.3065 C.3        1  LIG1  -0.1300
      8 S1        -18.6148    18.1123   -21.2598 S.3        1  LIG1  -0.1600
      9 C5        -19.9926    17.8844   -20.0936 C.3        1  LIG1  -0.1300
     10 H2        -19.8800    18.5634   -19.2484 H          1  LIG1   0.1200
     11 C6        -21.3154    18.1610   -20.8113 C.3        1  LIG1   0.0800
     12 O2        -22.4019    17.8911   -19.9229 O.3        1  LIG1  -0.3600
     13 C7        -22.4668    16.5367   -19.4724 C.3        1  LIG1   0.0600
     14 C8        -21.1877    16.1917   -18.7049 C.3        1  LIG1  -0.1700
     15 C9        -19.9695    16.4312   -19.6038 C.3        1  LIG1   0.0200
     16 H3        -20.0196    15.7682   -20.4676 H          1  LIG1   0.1600
     17 N2        -17.1297    15.9217   -16.3822 N.am       1  LIG1  -0.6400
     18 C10       -15.9565    15.6805   -15.6580 C.ar       1  LIG1   0.1300
     19 C11       -15.5527    14.3768   -15.4020 C.ar       1  LIG1  -0.1100
     20 C12       -14.3944    14.1417   -14.6876 C.ar       1  LIG1  -0.0700
     21 C13       -13.6366    15.2038   -14.2268 C.ar       1  LIG1  -0.0900
     22 Br1       -12.0512    14.8779   -13.2490 Br         1  LIG1  -0.0300
     23 C14       -14.0366    16.5038   -14.4806 C.ar       1  LIG1  -0.0700
     24 C15       -15.1911    16.7445   -15.1994 C.ar       1  LIG1  -0.1200
     25 H4        -19.3408    17.3648   -17.2367 H          1  LIG1   0.1700
     26 H5        -18.3972    18.2193   -18.4808 H          1  LIG1   0.1600
     27 H6        -16.7407    15.6456   -19.2371 H          1  LIG1   0.1600
     28 H7        -17.8526    15.4214   -20.6062 H          1  LIG1   0.1500
     29 H8        -16.9908    18.1236   -19.4727 H          1  LIG1   0.1100
     30 H9        -16.3365    17.3732   -20.9525 H          1  LIG1   0.1600
     31 H10       -21.3496    19.2055   -21.1210 H          1  LIG1   0.1300
     32 H11       -21.3945    17.5185   -21.6883 H          1  LIG1   0.0800
     33 H12       -23.3285    16.4127   -18.8167 H          1  LIG1   0.1200
     34 H13       -22.5655    15.8726   -20.3312 H          1  LIG1   0.0700
     35 H14       -21.1095    16.8270   -17.8227 H          1  LIG1   0.1000
     36 H15       -21.2165    15.1454   -18.4003 H          1  LIG1   0.1100
     37 H16       -17.8666    15.2927   -16.3351 H          1  LIG1   0.4200
     38 H17       -16.1442    13.5474   -15.7607 H          1  LIG1   0.1500
     39 H18       -14.0799    13.1280   -14.4881 H          1  LIG1   0.1400
     40 H19       -13.4433    17.3309   -14.1198 H          1  LIG1   0.1500
     41 H20       -15.5027    17.7594   -15.3975 H          1  LIG1   0.1400
@<TRIPOS>BOND
     1    1    2 2
     2    2    3 1
     3    2   17 am
     4    3    4 1
     5    3   25 1
     6    3   26 1
     7    4    5 1
     8    4   15 1
     9    4    6 1
    10    6    7 1
    11    6   27 1
    12    6   28 1
    13    7    8 1
    14    7   29 1
    15    7   30 1
    16    8    9 1
    17    9   10 1
    18    9   15 1
    19    9   11 1
    20   11   12 1
    21   11   31 1
    22   11   32 1
    23   12   13 1
    24   13   14 1
    25   13   33 1
    26   13   34 1
    27   14   15 1
    28   14   35 1
    29   14   36 1
    30   15   16 1
    31   17   18 1
    32   17   37 1
    33   18   24 ar
    34   18   19 ar
    35   19   20 ar
    36   19   38 1
    37   20   21 ar
    38   20   39 1
    39   21   22 1
    40   21   23 ar
    41   23   24 ar
    42   23   40 1
    43   24   41 1
##########                 Name:     ZINC000270959340
##########          Protonation:                 none
##########               SMILES:   CC[C@@H]1C[N@@H+]([C@H](C)C(=O)NCC2=CC=C(Cl)C=C2)C[C@@H]1O
##########            Long Name:   NO_LONG_NAME
##########          FlexRecCode: 1
##########               Number:                 5766
##########   Ligand Source File: /nfs/db/export/3D/DE/ADRO/DEADRO.xasd.db2.gz
##########                 Rank:                    1
##########               Setnum:                  291
##########             Matchnum:                    1
##########                Cloud:                    1
##########        Electrostatic:           -48.053741
##########                 Gist:             0.000000
##########        Van der Waals:           -30.669617
##########  Ligand Polar Desolv:            12.054816
########## Ligand Apolar Desolv:            -3.474030
##########      Internal Energy:             0.000000
##########      Receptor Energy:             0.000000
########## Receptor Desolvation:             0.000000
########## Receptor Hydrophobic:             0.000000
##########         Total Energy:           -70.142570
##########        Ligand Charge:             1.000000
##########            Arbitrary:    +999.9990
##########        Ligand Energy:             0.000000

@<TRIPOS>MOLECULE
 ZINC000270959340      none
   45    46     0     0     0



@<TRIPOS>ATOM
      1 C1        -22.2319    15.5428   -20.4107 C.3        1  LIG1  -0.1500
      2 C2        -22.0409    15.9648   -18.9524 C.3        1  LIG1  -0.1100
      3 C3        -20.9858    17.0700   -18.8754 C.3        1  LIG1  -0.1000
      4 H1        -21.3018    17.9353   -19.4580 H          1  LIG1   0.1200
      5 C4        -19.6286    16.5497   -19.3845 C.3        1  LIG1  -0.0100
      6 N1        -18.6813    16.6277   -18.2514 N.4        1  LIG1  -0.3700
      7 H2        -18.6523    15.7464   -17.7608 H          1  LIG1   0.4300
      8 C5        -17.3407    16.9830   -18.7355 C.3        1  LIG1   0.0100
      9 H3        -17.3797    17.9508   -19.2356 H          1  LIG1   0.1600
     10 C6        -16.8559    15.9185   -19.7218 C.3        1  LIG1  -0.1800
     11 C7        -16.3891    17.0582   -17.5695 C.2        1  LIG1   0.5100
     12 O1        -15.8114    18.0960   -17.3241 O.2        1  LIG1  -0.5300
     13 N2        -16.1797    15.9721   -16.7994 N.am       1  LIG1  -0.7000
     14 C8        -15.2545    16.0452   -15.6659 C.3        1  LIG1   0.1600
     15 C9        -15.2005    14.7073   -14.9745 C.ar       1  LIG1  -0.1200
     16 C10       -14.0453    14.3103   -14.3272 C.ar       1  LIG1  -0.0800
     17 C11       -13.9951    13.0833   -13.6929 C.ar       1  LIG1  -0.1100
     18 C12       -15.1015    12.2524   -13.7057 C.ar       1  LIG1  -0.0200
     19 Cl1       -15.0396    10.7109   -12.9096 Cl         1  LIG1  -0.0500
     20 C13       -16.2570    12.6503   -14.3538 C.ar       1  LIG1  -0.1100
     21 C14       -16.3079    13.8797   -14.9831 C.ar       1  LIG1  -0.0800
     22 C15       -19.2043    17.6937   -17.3591 C.3        1  LIG1  -0.0400
     23 C16       -20.7392    17.4749   -17.4039 C.3        1  LIG1   0.0900
     24 H4        -21.2675    18.3969   -17.1614 H          1  LIG1   0.1100
     25 O2        -21.1263    16.4240   -16.5163 O.3        1  LIG1  -0.5500
     26 H5        -22.9836    14.7554   -20.4656 H          1  LIG1   0.0600
     27 H6        -22.5607    16.4008   -20.9970 H          1  LIG1   0.0600
     28 H7        -21.2872    15.1716   -20.8082 H          1  LIG1   0.0600
     29 H8        -22.9856    16.3359   -18.5549 H          1  LIG1   0.0800
     30 H9        -21.7119    15.1069   -18.3660 H          1  LIG1   0.0700
     31 H10       -19.7278    15.5158   -19.7151 H          1  LIG1   0.1400
     32 H11       -19.2766    17.1731   -20.2064 H          1  LIG1   0.1300
     33 H12       -15.8611    16.1821   -20.0811 H          1  LIG1   0.1000
     34 H13       -16.8169    14.9508   -19.2218 H          1  LIG1   0.1100
     35 H14       -17.5442    15.8643   -20.5653 H          1  LIG1   0.0900
     36 H15       -16.6417    15.1421   -16.9955 H          1  LIG1   0.4100
     37 H16       -14.2598    16.3088   -16.0253 H          1  LIG1   0.0900
     38 H17       -15.5997    16.8036   -14.9633 H          1  LIG1   0.0900
     39 H18       -13.1818    14.9588   -14.3174 H          1  LIG1   0.1400
     40 H19       -13.0924    12.7732   -13.1874 H          1  LIG1   0.1400
     41 H20       -17.1206    12.0018   -14.3645 H          1  LIG1   0.1400
     42 H21       -17.2102    14.1907   -15.4886 H          1  LIG1   0.1300
     43 H22       -18.8267    17.5658   -16.3446 H          1  LIG1   0.1500
     44 H23       -18.9462    18.6797   -17.7453 H          1  LIG1   0.1400
     45 H24       -20.6477    15.5954   -16.6554 H          1  LIG1   0.4000
@<TRIPOS>BOND
     1    1    2 1
     2    1   26 1
     3    1   27 1
     4    1   28 1
     5    2    3 1
     6    2   29 1
     7    2   30 1
     8    3    4 1
     9    3   23 1
    10    3    5 1
    11    5    6 1
    12    5   31 1
    13    5   32 1
    14    6    7 1
    15    6    8 1
    16    6   22 1
    17    8    9 1
    18    8   10 1
    19    8   11 1
    20   10   33 1
    21   10   34 1
    22   10   35 1
    23   11   12 2
    24   11   13 am
    25   13   14 1
    26   13   36 1
    27   14   15 1
    28   14   37 1
    29   14   38 1
    30   15   21 ar
    31   15   16 ar
    32   16   17 ar
    33   16   39 1
    34   17   18 ar
    35   17   40 1
    36   18   19 1
    37   18   20 ar
    38   20   21 ar
    39   20   41 1
    40   21   42 1
    41   22   23 1
    42   22   43 1
    43   22   44 1
    44   23   24 1
    45   23   25 1
    46   25   45 1
##########                 Name:     ZINC000642686331
##########          Protonation:                 none
##########               SMILES:   ClC1=CC=CC=C1C1=CC(C[N@@H+]2CCC[C@H]2CN2C=NC=N2)=NO1
##########            Long Name:   NO_LONG_NAME
##########          FlexRecCode: 1
##########               Number:                 8841
##########   Ligand Source File: /nfs/db/export/3D/EG/ADMO/EGADMO.xbda.db2.gz
##########                 Rank:                    1
##########               Setnum:                  155
##########             Matchnum:                    1
##########                Cloud:                    1
##########        Electrostatic:           -42.838684
##########                 Gist:             0.000000
##########        Van der Waals:           -34.872074
##########  Ligand Polar Desolv:            13.433197
########## Ligand Apolar Desolv:            -7.943004
##########      Internal Energy:             0.000000
##########      Receptor Energy:             0.000000
########## Receptor Desolvation:             0.000000
########## Receptor Hydrophobic:             0.000000
##########         Total Energy:           -72.220558
##########        Ligand Charge:             1.000000
##########            Arbitrary:    +999.9990
##########        Ligand Energy:             0.000000

@<TRIPOS>MOLECULE
 ZINC000642686331      none
   43    46     0     0     0



@<TRIPOS>ATOM
      1 Cl1       -13.4577    15.8780   -12.7191 Cl         1  LIG1  -0.0600
      2 C1        -13.8998    14.2261   -13.0182 C.ar       1  LIG1   0.0000
      3 C2        -13.4355    13.2242   -12.1892 C.ar       1  LIG1  -0.1100
      4 C3        -13.7873    11.9075   -12.4267 C.ar       1  LIG1  -0.0800
      5 C4        -14.6054    11.5853   -13.4949 C.ar       1  LIG1  -0.1100
      6 C5        -15.0760    12.5763   -14.3316 C.ar       1  LIG1  -0.0700
      7 C6        -14.7309    13.9074   -14.0950 C.ar       1  LIG1  -0.0400
      8 C7        -15.2320    14.9743   -14.9871 C.2        1  LIG1   0.0400
      9 C8        -16.5393    15.3051   -15.2194 C.2        1  LIG1  -0.2000
     10 C9        -16.4601    16.3739   -16.1355 C.2        1  LIG1  -0.0500
     11 C10       -17.6153    17.1316   -16.7377 C.3        1  LIG1   0.1000
     12 N1        -18.0318    16.4785   -17.9859 N.4        1  LIG1  -0.3800
     13 H1        -18.3174    15.5299   -17.7947 H          1  LIG1   0.4300
     14 C11       -16.9070    16.4757   -18.9453 C.3        1  LIG1  -0.0100
     15 C12       -17.5683    16.6827   -20.3307 C.3        1  LIG1  -0.1400
     16 C13       -18.7090    17.6769   -19.9881 C.3        1  LIG1  -0.1300
     17 C14       -19.1543    17.2234   -18.5850 C.3        1  LIG1   0.0100
     18 H2        -19.3916    18.0931   -17.9723 H          1  LIG1   0.1500
     19 C15       -20.3805    16.3151   -18.6963 C.3        1  LIG1   0.1100
     20 N2        -21.4900    17.0634   -19.2924 N.pl3      1  LIG1  -0.4200
     21 C16       -22.3220    16.6375   -20.2585 C.2        1  LIG1   0.2900
     22 N3        -23.1742    17.5972   -20.5124 N.2        1  LIG1  -0.5300
     23 C17       -22.9190    18.6466   -19.7319 C.2        1  LIG1   0.2500
     24 N4        -21.8996    18.3659   -18.9635 N.2        1  LIG1  -0.3600
     25 N5        -15.1933    16.5789   -16.3594 N.2        1  LIG1  -0.3100
     26 O1        -14.4947    15.8194   -15.7296 O.3        1  LIG1   0.1400
     27 H3        -12.7963    13.4689   -11.3538 H          1  LIG1   0.1500
     28 H4        -13.4213    11.1275   -11.7756 H          1  LIG1   0.1500
     29 H5        -14.8760    10.5553   -13.6745 H          1  LIG1   0.1400
     30 H6        -15.7139    12.3227   -15.1654 H          1  LIG1   0.1400
     31 H7        -17.4254    14.8527   -14.7992 H          1  LIG1   0.1800
     32 H8        -18.4495    17.1399   -16.0360 H          1  LIG1   0.1400
     33 H9        -17.3077    18.1558   -16.9485 H          1  LIG1   0.1500
     34 H10       -16.2198    17.2932   -18.7268 H          1  LIG1   0.1400
     35 H11       -16.3836    15.5202   -18.9136 H          1  LIG1   0.1300
     36 H12       -16.8649    17.1239   -21.0371 H          1  LIG1   0.1200
     37 H13       -17.9697    15.7454   -20.7157 H          1  LIG1   0.1000
     38 H14       -18.3334    18.6998   -19.9603 H          1  LIG1   0.1100
     39 H15       -19.5275    17.5850   -20.7021 H          1  LIG1   0.1200
     40 H16       -20.1414    15.4575   -19.3251 H          1  LIG1   0.1500
     41 H17       -20.6675    15.9689   -17.7034 H          1  LIG1   0.1100
     42 H18       -22.2920    15.6718   -20.7412 H          1  LIG1   0.2300
     43 H19       -23.4680    19.5766   -19.7315 H          1  LIG1   0.2300
@<TRIPOS>BOND
     1    1    2 1
     2    2    7 ar
     3    2    3 ar
     4    3    4 ar
     5    3   27 1
     6    4    5 ar
     7    4   28 1
     8    5    6 ar
     9    5   29 1
    10    6    7 ar
    11    6   30 1
    12    7    8 1
    13    8   26 1
    14    8    9 2
    15    9   10 1
    16    9   31 1
    17   10   11 1
    18   10   25 2
    19   11   12 1
    20   11   32 1
    21   11   33 1
    22   12   13 1
    23   12   17 1
    24   12   14 1
    25   14   15 1
    26   14   34 1
    27   14   35 1
    28   15   16 1
    29   15   36 1
    30   15   37 1
    31   16   17 1
    32   16   38 1
    33   16   39 1
    34   17   18 1
    35   17   19 1
    36   19   20 1
    37   19   40 1
    38   19   41 1
    39   20   24 1
    40   20   21 1
    41   21   22 2
    42   21   42 1
    43   22   23 1
    44   23   24 2
    45   23   43 1
    46   25   26 1
##########                 Name:     ZINC000162663443
##########          Protonation:                 none
##########               SMILES:   CC1=C(C)C2=C(NC(C[N@H+](C)[C@H]3CCSC3)=NC2=O)S1
##########            Long Name:   NO_LONG_NAME
##########          FlexRecCode: 1
##########               Number:                 1760
##########   Ligand Source File: /nfs/db/export/3D/DF/ADMO/DFADMO.xbt.db2.gz
##########                 Rank:                    1
##########               Setnum:                   11
##########             Matchnum:                    1
##########                Cloud:                    1
##########        Electrostatic:           -54.464642
##########                 Gist:             0.000000
##########        Van der Waals:           -26.322544
##########  Ligand Polar Desolv:            21.988031
########## Ligand Apolar Desolv:            -4.966830
##########      Internal Energy:             0.000000
##########      Receptor Energy:             0.000000
########## Receptor Desolvation:             0.000000
########## Receptor Hydrophobic:             0.000000
##########         Total Energy:           -63.765984
##########        Ligand Charge:             1.000000
##########            Arbitrary:    +999.9990
##########        Ligand Energy:             0.000000

@<TRIPOS>MOLECULE
 ZINC000162663443      none
   40    42     0     0     0



@<TRIPOS>ATOM
      1 C1        -14.1548    11.8172   -12.7765 C.3        1  LIG1  -0.0900
      2 C2        -14.7506    12.9266   -13.6043 C.2        1  LIG1  -0.1800
      3 C3        -14.1476    14.0724   -13.8617 C.2        1  LIG1  -0.0400
      4 C4        -12.7707    14.3998   -13.3441 C.3        1  LIG1  -0.1000
      5 C5        -14.9127    14.9904   -14.6812 C.2        1  LIG1  -0.1900
      6 C6        -16.1472    14.4717   -15.0371 C.2        1  LIG1   0.0300
      7 N1        -16.9887    15.2332   -15.8185 N.pl3      1  LIG1  -0.5600
      8 C7        -16.6287    16.4577   -16.2338 C.2        1  LIG1   0.4100
      9 C8        -17.5907    17.2440   -17.0868 C.3        1  LIG1   0.0400
     10 N2        -18.1483    16.3707   -18.1281 N.4        1  LIG1  -0.3600
     11 H1        -18.6351    15.5999   -17.6954 H          1  LIG1   0.4400
     12 C9        -17.0598    15.8529   -18.9676 C.3        1  LIG1  -0.0600
     13 C10       -19.0858    17.1371   -18.9596 C.3        1  LIG1   0.0200
     14 H2        -18.5622    17.9705   -19.4281 H          1  LIG1   0.1600
     15 C11       -19.6782    16.2230   -20.0463 C.3        1  LIG1  -0.1500
     16 C12       -20.8804    16.9817   -20.6675 C.3        1  LIG1  -0.0800
     17 S1        -21.6919    17.7007   -19.1875 S.3        1  LIG1  -0.2000
     18 C13       -20.2352    17.6752   -18.0825 C.3        1  LIG1  -0.1300
     19 N3        -15.4802    16.9943   -15.9284 N.2        1  LIG1  -0.6000
     20 C14       -14.5815    16.3431   -15.1722 C.2        1  LIG1   0.5500
     21 O1        -13.5111    16.8601   -14.8951 O.2        1  LIG1  -0.4600
     22 S2        -16.3329    12.8616   -14.3583 S.3        1  LIG1   0.2200
     23 H3        -13.1656    12.1147   -12.4284 H          1  LIG1   0.0700
     24 H4        -14.7972    11.6187   -11.9186 H          1  LIG1   0.0900
     25 H5        -14.0704    10.9159   -13.3836 H          1  LIG1   0.0900
     26 H6        -12.4821    15.3949   -13.6830 H          1  LIG1   0.0800
     27 H7        -12.7768    14.3749   -12.2543 H          1  LIG1   0.0800
     28 H8        -12.0572    13.6668   -13.7204 H          1  LIG1   0.0800
     29 H9        -17.8551    14.8786   -16.0728 H          1  LIG1   0.4300
     30 H10       -18.3985    17.6281   -16.4638 H          1  LIG1   0.1700
     31 H11       -17.0649    18.0766   -17.5542 H          1  LIG1   0.1700
     32 H12       -17.4734    15.2049   -19.7402 H          1  LIG1   0.1300
     33 H13       -16.5338    16.6855   -19.4349 H          1  LIG1   0.1200
     34 H14       -16.3640    15.2842   -18.3505 H          1  LIG1   0.1500
     35 H15       -18.9293    16.0213   -20.8121 H          1  LIG1   0.1200
     36 H16       -20.0178    15.2876   -19.6016 H          1  LIG1   0.1100
     37 H17       -20.5376    17.7665   -21.3418 H          1  LIG1   0.1100
     38 H18       -21.5506    16.2924   -21.1812 H          1  LIG1   0.1300
     39 H19       -20.4122    17.0120   -17.2357 H          1  LIG1   0.1100
     40 H20       -20.0038    18.6823   -17.7356 H          1  LIG1   0.1300
@<TRIPOS>BOND
     1    1    2 1
     2    1   23 1
     3    1   24 1
     4    1   25 1
     5    2   22 1
     6    2    3 2
     7    3    4 1
     8    3    5 1
     9    4   26 1
    10    4   27 1
    11    4   28 1
    12    5   20 1
    13    5    6 2
    14    6    7 1
    15    6   22 1
    16    7    8 1
    17    7   29 1
    18    8    9 1
    19    8   19 2
    20    9   10 1
    21    9   30 1
    22    9   31 1
    23   10   11 1
    24   10   12 1
    25   10   13 1
    26   12   32 1
    27   12   33 1
    28   12   34 1
    29   13   14 1
    30   13   18 1
    31   13   15 1
    32   15   16 1
    33   15   35 1
    34   15   36 1
    35   16   17 1
    36   16   37 1
    37   16   38 1
    38   17   18 1
    39   18   39 1
    40   18   40 1
    41   19   20 1
    42   20   21 2
##########                 Name:     ZINC000067715288
##########          Protonation:                 none
##########               SMILES:   CC[C@H]1CCCC[N@H+]1CC(=O)NC1=C(C#N)C=NN1C1=CC=CC=C1
##########            Long Name:   NO_LONG_NAME
##########          FlexRecCode: 1
##########               Number:                 2653
##########   Ligand Source File: /nfs/db/export/3D/EF/EDMO/EFEDMO.xac.db2.gz
##########                 Rank:                    1
##########               Setnum:                  117
##########             Matchnum:                    1
##########                Cloud:                    1
##########        Electrostatic:           -47.588394
##########                 Gist:             0.000000
##########        Van der Waals:           -34.504021
##########  Ligand Polar Desolv:            17.011547
########## Ligand Apolar Desolv:            -5.979836
##########      Internal Energy:             0.000000
##########      Receptor Energy:             0.000000
########## Receptor Desolvation:             0.000000
########## Receptor Hydrophobic:             0.000000
##########         Total Energy:           -71.060699
##########        Ligand Charge:             1.000000
##########            Arbitrary:    +999.9990
##########        Ligand Energy:             0.000000

@<TRIPOS>MOLECULE
 ZINC000067715288      none
   49    51     0     0     0



@<TRIPOS>ATOM
      1 C1        -22.1933    17.1820   -18.6086 C.3        1  LIG1  -0.1800
      2 C2        -20.8027    16.8013   -18.0966 C.3        1  LIG1  -0.1500
      3 C3        -19.8377    16.6873   -19.2784 C.3        1  LIG1   0.0300
      4 H1        -20.1947    15.9201   -19.9656 H          1  LIG1   0.1500
      5 C4        -19.7645    18.0305   -20.0078 C.3        1  LIG1  -0.1400
      6 C5        -18.7980    17.9113   -21.1897 C.3        1  LIG1  -0.1400
      7 C6        -17.4300    17.4557   -20.6738 C.3        1  LIG1  -0.1500
      8 C7        -17.5897    16.1339   -19.9196 C.3        1  LIG1  -0.0200
      9 N1        -18.5042    16.3206   -18.7867 N.4        1  LIG1  -0.3600
     10 H2        -18.5658    15.4621   -18.2605 H          1  LIG1   0.4300
     11 C8        -17.9937    17.3899   -17.9185 C.3        1  LIG1  -0.0400
     12 C9        -16.6244    17.0155   -17.4126 C.2        1  LIG1   0.5200
     13 O1        -15.6375    17.3332   -18.0420 O.2        1  LIG1  -0.4900
     14 N2        -16.4963    16.3276   -16.2606 N.am       1  LIG1  -0.6400
     15 C10       -15.3682    16.4980   -15.4731 C.2        1  LIG1   0.3400
     16 C11       -14.6054    17.6557   -15.3620 C.2        1  LIG1  -0.1400
     17 C12       -14.8373    18.8962   -16.0387 C.1        1  LIG1   0.2800
     18 N3        -15.0213    19.8803   -16.5755 N.1        1  LIG1  -0.4000
     19 C13       -13.5581    17.3764   -14.4541 C.2        1  LIG1   0.1200
     20 N4        -13.6848    16.1423   -14.0517 N.2        1  LIG1  -0.2400
     21 N5        -14.8059    15.5719   -14.6645 N.pl3      1  LIG1  -0.3000
     22 C14       -15.2629    14.2603   -14.4788 C.ar       1  LIG1   0.1300
     23 C15       -15.0642    13.6199   -13.2630 C.ar       1  LIG1  -0.1300
     24 C16       -15.5163    12.3273   -13.0829 C.ar       1  LIG1  -0.1000
     25 C17       -16.1654    11.6708   -14.1112 C.ar       1  LIG1  -0.1000
     26 C18       -16.3655    12.3062   -15.3241 C.ar       1  LIG1  -0.1000
     27 C19       -15.9205    13.6005   -15.5085 C.ar       1  LIG1  -0.0900
     28 H3        -22.8808    17.2633   -17.7666 H          1  LIG1   0.0900
     29 H4        -22.1400    18.1389   -19.1277 H          1  LIG1   0.0800
     30 H5        -22.5500    16.4150   -19.2961 H          1  LIG1   0.0500
     31 H6        -20.4462    17.5684   -17.4090 H          1  LIG1   0.1200
     32 H7        -20.8560    15.8445   -17.5774 H          1  LIG1   0.0900
     33 H8        -20.7552    18.3005   -20.3735 H          1  LIG1   0.1200
     34 H9        -19.4074    18.7984   -19.3215 H          1  LIG1   0.0900
     35 H10       -19.1811    17.1801   -21.9015 H          1  LIG1   0.0900
     36 H11       -18.6989    18.8804   -21.6785 H          1  LIG1   0.1000
     37 H12       -16.7520    17.3150   -21.5156 H          1  LIG1   0.1200
     38 H13       -17.0244    18.2116   -20.0013 H          1  LIG1   0.0800
     39 H14       -17.9950    15.3787   -20.5931 H          1  LIG1   0.1400
     40 H15       -16.6175    15.8065   -19.5511 H          1  LIG1   0.1500
     41 H16       -17.9300    18.3189   -18.4852 H          1  LIG1   0.1700
     42 H17       -18.6687    17.5252   -17.0735 H          1  LIG1   0.1700
     43 H18       -17.1936    15.7132   -15.9827 H          1  LIG1   0.4300
     44 H19       -12.7861    18.0662   -14.1469 H          1  LIG1   0.2100
     45 H20       -14.5564    14.1318   -12.4590 H          1  LIG1   0.1200
     46 H21       -15.3617    11.8285   -12.1376 H          1  LIG1   0.1400
     47 H22       -16.5176    10.6600   -13.9681 H          1  LIG1   0.1400
     48 H23       -16.8734    11.7909   -16.1259 H          1  LIG1   0.1400
     49 H24       -16.0765    14.0961   -16.4553 H          1  LIG1   0.1400
@<TRIPOS>BOND
     1    1    2 1
     2    1   28 1
     3    1   29 1
     4    1   30 1
     5    2    3 1
     6    2   31 1
     7    2   32 1
     8    3    4 1
     9    3    9 1
    10    3    5 1
    11    5    6 1
    12    5   33 1
    13    5   34 1
    14    6    7 1
    15    6   35 1
    16    6   36 1
    17    7    8 1
    18    7   37 1
    19    7   38 1
    20    8    9 1
    21    8   39 1
    22    8   40 1
    23    9   10 1
    24    9   11 1
    25   11   12 1
    26   11   41 1
    27   11   42 1
    28   12   13 2
    29   12   14 am
    30   14   15 1
    31   14   43 1
    32   15   21 1
    33   15   16 2
    34   16   17 1
    35   16   19 1
    36   17   18 3
    37   19   20 2
    38   19   44 1
    39   20   21 1
    40   21   22 1
    41   22   27 ar
    42   22   23 ar
    43   23   24 ar
    44   23   45 1
    45   24   25 ar
    46   24   46 1
    47   25   26 ar
    48   25   47 1
    49   26   27 ar
    50   26   48 1
    51   27   49 1
##########                 Name:     ZINC000493204343
##########          Protonation:                 none
##########               SMILES:   CC(C)(C)[C@@H](C[NH3+])NC(=O)/C=C/C1=CSC(Br)=C1
##########            Long Name:   NO_LONG_NAME
##########          FlexRecCode: 1
##########               Number:                 3174
##########   Ligand Source File: /nfs/db/export/3D/EG/ADRO/EGADRO.xbiw.db2.gz
##########                 Rank:                    1
##########               Setnum:                   15
##########             Matchnum:                    1
##########                Cloud:                    1
##########        Electrostatic:           -44.509079
##########                 Gist:             0.000000
##########        Van der Waals:           -26.909697
##########  Ligand Polar Desolv:            10.538626
########## Ligand Apolar Desolv:            -3.026068
##########      Internal Energy:             0.000000
##########      Receptor Energy:             0.000000
########## Receptor Desolvation:             0.000000
########## Receptor Hydrophobic:             0.000000
##########         Total Energy:           -63.906219
##########        Ligand Charge:             1.000000
##########            Arbitrary:    +999.9990
##########        Ligand Energy:             0.000000

@<TRIPOS>MOLECULE
 ZINC000493204343      none
   38    38     0     0     0



@<TRIPOS>ATOM
      1 C1        -15.2240    19.5005   -18.7655 C.3        1  LIG1  -0.1500
      2 C2        -16.1504    18.6085   -19.5945 C.3        1  LIG1  -0.0700
      3 C3        -16.9312    19.4694   -20.5895 C.3        1  LIG1  -0.1600
      4 C4        -15.3167    17.5768   -20.3570 C.3        1  LIG1  -0.1500
      5 C5        -17.1294    17.8874   -18.6659 C.3        1  LIG1   0.1300
      6 H1        -17.7232    18.6225   -18.1226 H          1  LIG1   0.1200
      7 C6        -18.0557    16.9955   -19.4949 C.3        1  LIG1  -0.0300
      8 N1        -18.9958    16.3031   -18.6032 N.4        1  LIG1  -0.6300
      9 H2        -18.4808    15.7354   -17.9472 H          1  LIG1   0.4300
     10 H3        -19.5455    16.9834   -18.1004 H          1  LIG1   0.4400
     11 H4        -19.6067    15.7148   -19.1500 H          1  LIG1   0.4300
     12 N2        -16.3816    17.0630   -17.7133 N.am       1  LIG1  -0.7300
     13 C7        -16.5016    17.2865   -16.3896 C.2        1  LIG1   0.5600
     14 O1        -17.2313    18.1735   -15.9855 O.2        1  LIG1  -0.5600
     15 C8        -15.7787    16.4895   -15.4684 C.2        1  LIG1  -0.2700
     16 C9        -15.9744    15.1516   -15.4324 C.2        1  LIG1   0.0700
     17 C10       -15.2258    14.3261   -14.4785 C.2        1  LIG1  -0.1300
     18 C11       -14.0669    14.7273   -13.8844 C.2        1  LIG1  -0.2100
     19 S1        -13.4735    13.5202   -12.8377 S.3        1  LIG1   0.2700
     20 C12       -14.8101    12.4421   -13.1995 C.2        1  LIG1  -0.2300
     21 Br1       -15.0367    10.7203   -12.4512 Br         1  LIG1   0.0300
     22 C13       -15.6441    13.0052   -14.0665 C.2        1  LIG1  -0.0700
     23 H5        -14.6677    18.8872   -18.0566 H          1  LIG1   0.0600
     24 H6        -14.5265    20.0142   -19.4270 H          1  LIG1   0.0700
     25 H7        -15.8178    20.2355   -18.2221 H          1  LIG1   0.0800
     26 H8        -17.5912    18.8339   -21.1800 H          1  LIG1   0.0800
     27 H9        -17.5252    20.2043   -20.0462 H          1  LIG1   0.0600
     28 H10       -16.2337    19.9831   -21.2510 H          1  LIG1   0.0600
     29 H11       -15.9765    16.9413   -20.9477 H          1  LIG1   0.0600
     30 H12       -14.6194    18.0907   -21.0187 H          1  LIG1   0.0600
     31 H13       -14.7602    16.9636   -19.6482 H          1  LIG1   0.0700
     32 H14       -18.6119    17.6088   -20.2037 H          1  LIG1   0.1500
     33 H15       -17.4619    16.2604   -20.0382 H          1  LIG1   0.1400
     34 H16       -15.8002    16.3565   -18.0351 H          1  LIG1   0.4200
     35 H17       -15.0711    16.9499   -14.7948 H          1  LIG1   0.1300
     36 H18       -16.6820    14.6911   -16.1061 H          1  LIG1   0.1400
     37 H19       -13.5890    15.6809   -14.0541 H          1  LIG1   0.1800
     38 H20       -16.5383    12.5225   -14.4324 H          1  LIG1   0.1600
@<TRIPOS>BOND
     1    1    2 1
     2    1   23 1
     3    1   24 1
     4    1   25 1
     5    2    3 1
     6    2    4 1
     7    2    5 1
     8    3   26 1
     9    3   27 1
    10    3   28 1
    11    4   29 1
    12    4   30 1
    13    4   31 1
    14    5    6 1
    15    5    7 1
    16    5   12 1
    17    7    8 1
    18    7   32 1
    19    7   33 1
    20    8    9 1
    21    8   10 1
    22    8   11 1
    23   12   13 am
    24   12   34 1
    25   13   14 2
    26   13   15 1
    27   15   16 2
    28   15   35 1
    29   16   17 1
    30   16   36 1
    31   17   22 1
    32   17   18 2
    33   18   19 1
    34   18   37 1
    35   19   20 1
    36   20   21 1
    37   20   22 2
    38   22   38 1
##########                 Name:     ZINC000298433681
##########          Protonation:                 none
##########               SMILES:   CC(C)COC[C@H](O)C[N@H+](C)CC(=O)NC1=CC=CC(Cl)=C1
##########            Long Name:   NO_LONG_NAME
##########          FlexRecCode: 1
##########               Number:                13849
##########   Ligand Source File: /nfs/db/export/3D/EE/ADMO/EEADMO.xbar.db2.gz
##########                 Rank:                    1
##########               Setnum:                  264
##########             Matchnum:                    1
##########                Cloud:                    1
##########        Electrostatic:           -52.571583
##########                 Gist:             0.000000
##########        Van der Waals:           -28.818485
##########  Ligand Polar Desolv:            16.647799
########## Ligand Apolar Desolv:            -2.919644
##########      Internal Energy:             0.000000
##########      Receptor Energy:             0.000000
########## Receptor Desolvation:             0.000000
########## Receptor Hydrophobic:             0.000000
##########         Total Energy:           -67.661911
##########        Ligand Charge:             1.000000
##########            Arbitrary:    +999.9990
##########        Ligand Energy:             0.000000

@<TRIPOS>MOLECULE
 ZINC000298433681      none
   48    48     0     0     0



@<TRIPOS>ATOM
      1 C1        -18.1976    20.8393   -21.5806 C.3        1  LIG1  -0.1500
      2 C2        -18.3751    19.9221   -22.7923 C.3        1  LIG1  -0.0900
      3 C3        -17.0261    19.3057   -23.1675 C.3        1  LIG1  -0.1500
      4 C4        -19.3665    18.8087   -22.4480 C.3        1  LIG1   0.0700
      5 O1        -18.8665    18.0497   -21.3453 O.3        1  LIG1  -0.3700
      6 C5        -19.8674    17.2986   -20.6552 C.3        1  LIG1   0.0300
      7 C6        -19.2221    16.5295   -19.5006 C.3        1  LIG1   0.0800
      8 H1        -18.4654    15.8509   -19.8941 H          1  LIG1   0.1300
      9 O2        -20.2229    15.7784   -18.8104 O.3        1  LIG1  -0.5400
     10 C7        -18.5676    17.5173   -18.5327 C.3        1  LIG1  -0.0400
     11 N1        -17.9481    16.7788   -17.4241 N.4        1  LIG1  -0.3700
     12 H2        -18.5504    16.0176   -17.1488 H          1  LIG1   0.4400
     13 C8        -17.7496    17.6832   -16.2837 C.3        1  LIG1  -0.0600
     14 C9        -16.6500    16.2442   -17.8568 C.3        1  LIG1  -0.0400
     15 C10       -16.0145    15.4867   -16.7197 C.2        1  LIG1   0.5000
     16 O3        -14.9369    15.8357   -16.2857 O.2        1  LIG1  -0.5100
     17 N2        -16.6433    14.4213   -16.1848 N.am       1  LIG1  -0.6400
     18 C11       -16.0533    13.7179   -15.1289 C.ar       1  LIG1   0.1300
     19 C12       -16.2940    12.3586   -14.9781 C.ar       1  LIG1  -0.1300
     20 C13       -15.7098    11.6663   -13.9352 C.ar       1  LIG1  -0.0800
     21 C14       -14.8864    12.3250   -13.0413 C.ar       1  LIG1  -0.1100
     22 C15       -14.6444    13.6799   -13.1882 C.ar       1  LIG1  -0.0200
     23 Cl1       -13.6095    14.5032   -12.0634 Cl         1  LIG1  -0.0500
     24 C16       -15.2211    14.3766   -14.2332 C.ar       1  LIG1  -0.1100
     25 H3        -19.1587    21.2784   -21.3133 H          1  LIG1   0.0600
     26 H4        -17.8161    20.2605   -20.7394 H          1  LIG1   0.0600
     27 H5        -17.4914    21.6326   -21.8258 H          1  LIG1   0.0500
     28 H6        -18.7567    20.5011   -23.6333 H          1  LIG1   0.0800
     29 H7        -17.1526    18.6524   -24.0306 H          1  LIG1   0.0600
     30 H8        -16.3198    20.0989   -23.4125 H          1  LIG1   0.0600
     31 H9        -16.6447    18.7267   -22.3263 H          1  LIG1   0.0700
     32 H10       -20.3277    19.2479   -22.1807 H          1  LIG1   0.0500
     33 H11       -19.4932    18.1552   -23.3112 H          1  LIG1   0.0500
     34 H12       -20.6241    17.9772   -20.2618 H          1  LIG1   0.0700
     35 H13       -20.3334    16.5949   -21.3449 H          1  LIG1   0.0600
     36 H14       -19.8845    15.2648   -18.0642 H          1  LIG1   0.3900
     37 H15       -17.8042    18.0901   -19.0592 H          1  LIG1   0.1500
     38 H16       -19.3244    18.1958   -18.1392 H          1  LIG1   0.1500
     39 H17       -17.2898    17.1353   -15.4611 H          1  LIG1   0.1300
     40 H18       -17.0988    18.5055   -16.5811 H          1  LIG1   0.1400
     41 H19       -18.7127    18.0800   -15.9625 H          1  LIG1   0.1200
     42 H20       -16.7972    15.5731   -18.7030 H          1  LIG1   0.1600
     43 H21       -15.9993    17.0664   -18.1542 H          1  LIG1   0.1700
     44 H22       -17.5051    14.1422   -16.5318 H          1  LIG1   0.4200
     45 H23       -16.9377    11.8432   -15.6754 H          1  LIG1   0.1400
     46 H24       -15.8970    10.6092   -13.8177 H          1  LIG1   0.1500
     47 H25       -14.4311    11.7814   -12.2266 H          1  LIG1   0.1400
     48 H26       -15.0323    15.4337   -14.3478 H          1  LIG1   0.1500
@<TRIPOS>BOND
     1    1    2 1
     2    1   25 1
     3    1   26 1
     4    1   27 1
     5    2    3 1
     6    2    4 1
     7    2   28 1
     8    3   29 1
     9    3   30 1
    10    3   31 1
    11    4    5 1
    12    4   32 1
    13    4   33 1
    14    5    6 1
    15    6    7 1
    16    6   34 1
    17    6   35 1
    18    7    8 1
    19    7    9 1
    20    7   10 1
    21    9   36 1
    22   10   11 1
    23   10   37 1
    24   10   38 1
    25   11   12 1
    26   11   13 1
    27   11   14 1
    28   13   39 1
    29   13   40 1
    30   13   41 1
    31   14   15 1
    32   14   42 1
    33   14   43 1
    34   15   16 2
    35   15   17 am
    36   17   18 1
    37   17   44 1
    38   18   24 ar
    39   18   19 ar
    40   19   20 ar
    41   19   45 1
    42   20   21 ar
    43   20   46 1
    44   21   22 ar
    45   21   47 1
    46   22   23 1
    47   22   24 ar
    48   24   48 1
##########                 Name:     ZINC000560268239
##########          Protonation:                 none
##########               SMILES:   N#C[C@H]1CC[C@H]([NH2+]CC(=O)NC2=CC=C(I)C=C2)C1
##########            Long Name:   NO_LONG_NAME
##########          FlexRecCode: 1
##########               Number:                 5755
##########   Ligand Source File: /nfs/db/export/3D/FF/EDRO/FFEDRO.xch.db2.gz
##########                 Rank:                    1
##########               Setnum:                  200
##########             Matchnum:                    1
##########                Cloud:                    1
##########        Electrostatic:           -49.416634
##########                 Gist:             0.000000
##########        Van der Waals:           -31.845812
##########  Ligand Polar Desolv:            22.004265
########## Ligand Apolar Desolv:            -4.638072
##########      Internal Energy:             0.000000
##########      Receptor Energy:             0.000000
########## Receptor Desolvation:             0.000000
########## Receptor Hydrophobic:             0.000000
##########         Total Energy:           -63.896252
##########        Ligand Charge:             1.000000
##########            Arbitrary:    +999.9990
##########        Ligand Energy:             0.000000

@<TRIPOS>MOLECULE
 ZINC000560268239      none
   36    37     0     0     0



@<TRIPOS>ATOM
      1 N1        -24.2146    15.8637   -19.9444 N.1        1  LIG1  -0.3900
      2 C1        -23.1075    15.7842   -19.7027 C.1        1  LIG1   0.1900
      3 C2        -21.6729    15.6813   -19.3896 C.3        1  LIG1   0.0100
      4 H1        -21.4198    14.6627   -19.0950 H          1  LIG1   0.1300
      5 C3        -20.8197    16.1218   -20.6050 C.3        1  LIG1  -0.1100
      6 C4        -19.4777    16.5324   -19.9497 C.3        1  LIG1  -0.1400
      7 C5        -19.8943    17.2202   -18.6332 C.3        1  LIG1   0.0200
      8 H2        -19.9373    18.3002   -18.7736 H          1  LIG1   0.1500
      9 N2        -18.9384    16.8892   -17.5681 N.4        1  LIG1  -0.4900
     10 H3        -19.2187    17.3430   -16.7117 H          1  LIG1   0.4400
     11 H4        -18.9219    15.8900   -17.4296 H          1  LIG1   0.4400
     12 C6        -17.5981    17.3525   -17.9517 C.3        1  LIG1  -0.0300
     13 C7        -16.6174    17.0129   -16.8591 C.2        1  LIG1   0.5000
     14 O1        -15.9992    17.8960   -16.3030 O.2        1  LIG1  -0.5100
     15 N3        -16.4272    15.7279   -16.4997 N.am       1  LIG1  -0.6500
     16 C8        -15.5166    15.4126   -15.4851 C.ar       1  LIG1   0.1300
     17 C9        -15.7202    14.2915   -14.6910 C.ar       1  LIG1  -0.1300
     18 C10       -14.8198    13.9828   -13.6903 C.ar       1  LIG1  -0.0600
     19 C11       -13.7161    14.7893   -13.4782 C.ar       1  LIG1  -0.1000
     20 I1        -12.3531    14.3176   -11.9588 I          1  LIG1  -0.0200
     21 C12       -13.5103    15.9063   -14.2678 C.ar       1  LIG1  -0.0700
     22 C13       -14.4042    16.2169   -15.2737 C.ar       1  LIG1  -0.1100
     23 C14       -21.2908    16.6765   -18.2746 C.3        1  LIG1  -0.1400
     24 H5        -20.6741    15.2914   -21.2960 H          1  LIG1   0.1000
     25 H6        -21.2783    16.9712   -21.1113 H          1  LIG1   0.0900
     26 H7        -18.8685    15.6523   -19.7441 H          1  LIG1   0.1000
     27 H8        -18.9380    17.2299   -20.5904 H          1  LIG1   0.1100
     28 H9        -17.2953    16.8622   -18.8770 H          1  LIG1   0.1700
     29 H10       -17.6158    18.4320   -18.1015 H          1  LIG1   0.1700
     30 H11       -16.9217    15.0217   -16.9443 H          1  LIG1   0.4200
     31 H12       -16.5822    13.6620   -14.8557 H          1  LIG1   0.1400
     32 H13       -14.9778    13.1112   -13.0726 H          1  LIG1   0.1400
     33 H14       -12.6477    16.5342   -14.1001 H          1  LIG1   0.1400
     34 H15       -14.2430    17.0890   -15.8900 H          1  LIG1   0.1500
     35 H16       -22.0123    17.4929   -18.2418 H          1  LIG1   0.1200
     36 H17       -21.2574    16.1683   -17.3110 H          1  LIG1   0.1000
@<TRIPOS>BOND
     1    1    2 3
     2    2    3 1
     3    3    4 1
     4    3   23 1
     5    3    5 1
     6    5    6 1
     7    5   24 1
     8    5   25 1
     9    6    7 1
    10    6   26 1
    11    6   27 1
    12    7    8 1
    13    7    9 1
    14    7   23 1
    15    9   10 1
    16    9   11 1
    17    9   12 1
    18   12   13 1
    19   12   28 1
    20   12   29 1
    21   13   14 2
    22   13   15 am
    23   15   16 1
    24   15   30 1
    25   16   22 ar
    26   16   17 ar
    27   17   18 ar
    28   17   31 1
    29   18   19 ar
    30   18   32 1
    31   19   20 1
    32   19   21 ar
    33   21   22 ar
    34   21   33 1
    35   22   34 1
    36   23   35 1
    37   23   36 1
##########                 Name:     ZINC000450226409
##########          Protonation:                 none
##########               SMILES:   C[C@@H](C1=CC=CC=C1)[C@H](O)C[N@@H+](C)CC1=CC=CC=C1[N+](=O)[O-]
##########            Long Name:   NO_LONG_NAME
##########          FlexRecCode: 1
##########               Number:                 1884
##########   Ligand Source File: /nfs/db/export/3D/DG/BDMO/DGBDMO.xaa.db2.gz
##########                 Rank:                    1
##########               Setnum:                   45
##########             Matchnum:                    1
##########                Cloud:                    1
##########        Electrostatic:           -47.676399
##########                 Gist:             0.000000
##########        Van der Waals:           -30.040073
##########  Ligand Polar Desolv:            16.772940
########## Ligand Apolar Desolv:            -5.800359
##########      Internal Energy:             0.000000
##########      Receptor Energy:             0.000000
########## Receptor Desolvation:             0.000000
########## Receptor Hydrophobic:             0.000000
##########         Total Energy:           -66.743896
##########        Ligand Charge:             1.000000
##########            Arbitrary:    +999.9990
##########        Ligand Energy:             0.000000

@<TRIPOS>MOLECULE
 ZINC000450226409      none
   46    47     0     0     0



@<TRIPOS>ATOM
      1 C1        -18.7144    17.7592   -21.0660 C.3        1  LIG1  -0.1600
      2 C2        -19.5025    17.8549   -19.7581 C.3        1  LIG1  -0.0700
      3 H1        -19.3495    18.8378   -19.3126 H          1  LIG1   0.0900
      4 C3        -20.9693    17.6539   -20.0398 C.ar       1  LIG1  -0.0800
      5 C4        -21.7708    18.7396   -20.3389 C.ar       1  LIG1  -0.1100
      6 C5        -23.1161    18.5554   -20.5973 C.ar       1  LIG1  -0.1200
      7 C6        -23.6600    17.2852   -20.5570 C.ar       1  LIG1  -0.1100
      8 C7        -22.8583    16.1993   -20.2587 C.ar       1  LIG1  -0.1100
      9 C8        -21.5121    16.3831   -20.0045 C.ar       1  LIG1  -0.1100
     10 C9        -19.0165    16.7746   -18.7896 C.3        1  LIG1   0.0900
     11 H2        -18.8331    15.8508   -19.3381 H          1  LIG1   0.1200
     12 O1        -20.0136    16.5461   -17.7917 O.3        1  LIG1  -0.5500
     13 C10       -17.7207    17.2358   -18.1197 C.3        1  LIG1  -0.0500
     14 N1        -17.0060    16.0708   -17.5816 N.4        1  LIG1  -0.3800
     15 H3        -17.6685    15.4297   -17.1716 H          1  LIG1   0.4200
     16 C11       -16.2803    15.3973   -18.6669 C.3        1  LIG1  -0.0600
     17 C12       -16.0524    16.5124   -16.5552 C.3        1  LIG1   0.0300
     18 C13       -15.6862    15.3456   -15.6745 C.ar       1  LIG1  -0.0900
     19 C14       -16.2353    14.1000   -15.9138 C.ar       1  LIG1  -0.0900
     20 C15       -15.8994    13.0296   -15.1059 C.ar       1  LIG1  -0.0600
     21 C16       -15.0141    13.2050   -14.0590 C.ar       1  LIG1  -0.0800
     22 C17       -14.4642    14.4508   -13.8202 C.ar       1  LIG1  -0.0400
     23 C18       -14.7966    15.5200   -14.6305 C.ar       1  LIG1  -0.0300
     24 N2        -14.2079    16.8537   -14.3749 N.pl3      1  LIG1   0.0200
     25 O2        -14.5071    17.7976   -15.0842 O.2        1  LIG1  -0.0900
     26 O3        -13.4242    17.0074   -13.4553 O.2        1  LIG1  -0.2100
     27 H4        -18.8674    16.7764   -21.5115 H          1  LIG1   0.0700
     28 H5        -19.0605    18.5289   -21.7558 H          1  LIG1   0.0800
     29 H6        -17.6534    17.9046   -20.8622 H          1  LIG1   0.0600
     30 H7        -21.3459    19.7321   -20.3704 H          1  LIG1   0.1200
     31 H8        -23.7424    19.4038   -20.8303 H          1  LIG1   0.1200
     32 H9        -24.7114    17.1413   -20.7581 H          1  LIG1   0.1300
     33 H10       -23.2834    15.2068   -20.2269 H          1  LIG1   0.1300
     34 H11       -20.8858    15.5346   -19.7715 H          1  LIG1   0.1200
     35 H12       -19.7724    15.8715   -17.1420 H          1  LIG1   0.3900
     36 H13       -17.0922    17.7407   -18.8533 H          1  LIG1   0.1400
     37 H14       -17.9563    17.9243   -17.3081 H          1  LIG1   0.1400
     38 H15       -15.7500    14.5327   -18.2676 H          1  LIG1   0.1200
     39 H16       -16.9879    15.0697   -19.4285 H          1  LIG1   0.1300
     40 H17       -15.5645    16.0897   -19.1097 H          1  LIG1   0.1300
     41 H18       -15.1544    16.9003   -17.0363 H          1  LIG1   0.1500
     42 H19       -16.5076    17.2960   -15.9495 H          1  LIG1   0.1600
     43 H20       -16.9270    13.9629   -16.7318 H          1  LIG1   0.1600
     44 H21       -16.3290    12.0564   -15.2924 H          1  LIG1   0.1600
     45 H22       -14.7522    12.3690   -13.4274 H          1  LIG1   0.1600
     46 H23       -13.7726    14.5879   -13.0020 H          1  LIG1   0.1700
@<TRIPOS>BOND
     1    1    2 1
     2    1   27 1
     3    1   28 1
     4    1   29 1
     5    2    3 1
     6    2    4 1
     7    2   10 1
     8    4    9 ar
     9    4    5 ar
    10    5    6 ar
    11    5   30 1
    12    6    7 ar
    13    6   31 1
    14    7    8 ar
    15    7   32 1
    16    8    9 ar
    17    8   33 1
    18    9   34 1
    19   10   11 1
    20   10   12 1
    21   10   13 1
    22   12   35 1
    23   13   14 1
    24   13   36 1
    25   13   37 1
    26   14   15 1
    27   14   16 1
    28   14   17 1
    29   16   38 1
    30   16   39 1
    31   16   40 1
    32   17   18 1
    33   17   41 1
    34   17   42 1
    35   18   23 ar
    36   18   19 ar
    37   19   20 ar
    38   19   43 1
    39   20   21 ar
    40   20   44 1
    41   21   22 ar
    42   21   45 1
    43   22   23 ar
    44   22   46 1
    45   23   24 1
    46   24   25 2
    47   24   26 2
##########                 Name:     ZINC000159509070
##########          Protonation:                 none
##########               SMILES:   C[N@H+](CC(=O)NC1=CC(C(F)(F)F)=CC=C1Cl)C[C@@H]1CCC[C@@H]1O
##########            Long Name:   NO_LONG_NAME
##########          FlexRecCode: 1
##########               Number:                 8340
##########   Ligand Source File: /nfs/db/export/3D/FG/ADMO/FGADMO.xbcs.db2.gz
##########                 Rank:                    1
##########               Setnum:                  174
##########             Matchnum:                    1
##########                Cloud:                    1
##########        Electrostatic:           -46.018669
##########                 Gist:             0.000000
##########        Van der Waals:           -31.457016
##########  Ligand Polar Desolv:            12.063643
########## Ligand Apolar Desolv:            -4.912374
##########      Internal Energy:             0.000000
##########      Receptor Energy:             0.000000
########## Receptor Desolvation:             0.000000
########## Receptor Hydrophobic:             0.000000
##########         Total Energy:           -70.324417
##########        Ligand Charge:             1.000000
##########            Arbitrary:    +999.9990
##########        Ligand Energy:             0.000000

@<TRIPOS>MOLECULE
 ZINC000159509070      none
   45    46     0     0     0



@<TRIPOS>ATOM
      1 C1        -18.0292    17.6206   -16.6821 C.3        1  LIG1  -0.0700
      2 N1        -18.0714    16.6841   -17.8129 N.4        1  LIG1  -0.3800
      3 H1        -18.5912    15.8607   -17.5486 H          1  LIG1   0.4300
      4 C2        -16.7024    16.3010   -18.1829 C.3        1  LIG1  -0.0300
      5 C3        -16.0310    15.6391   -17.0072 C.2        1  LIG1   0.5000
      6 O1        -15.0214    16.1187   -16.5364 O.2        1  LIG1  -0.5000
      7 N2        -16.5524    14.5140   -16.4791 N.am       1  LIG1  -0.6400
      8 C4        -15.9288    13.8991   -15.3872 C.ar       1  LIG1   0.1400
      9 C5        -15.2236    14.6636   -14.4678 C.ar       1  LIG1  -0.0700
     10 C6        -14.6096    14.0539   -13.3908 C.ar       1  LIG1  -0.1600
     11 C7        -13.8443    14.8836   -12.3922 C.3        1  LIG1   0.5100
     12 F1        -13.8981    16.2305   -12.7663 F          1  LIG1  -0.1700
     13 F2        -14.4135    14.7288   -11.1236 F          1  LIG1  -0.1700
     14 F3        -12.5109    14.4617   -12.3597 F          1  LIG1  -0.1700
     15 C8        -14.6956    12.6842   -13.2277 C.ar       1  LIG1  -0.0600
     16 C9        -15.3976    11.9185   -14.1415 C.ar       1  LIG1  -0.0800
     17 C10       -16.0191    12.5225   -15.2178 C.ar       1  LIG1  -0.0300
     18 Cl1       -16.8997    11.5617   -16.3645 Cl         1  LIG1  -0.0400
     19 C11       -18.7259    17.3293   -18.9589 C.3        1  LIG1   0.0100
     20 C12       -20.2439    17.2786   -18.7743 C.3        1  LIG1  -0.1100
     21 H2        -20.4997    17.4694   -17.7321 H          1  LIG1   0.1100
     22 C13       -20.7829    15.8992   -19.2066 C.3        1  LIG1  -0.1400
     23 C14       -22.1407    16.2164   -19.8811 C.3        1  LIG1  -0.1200
     24 C15       -21.8472    17.5364   -20.6363 C.3        1  LIG1  -0.1600
     25 C16       -20.9204    18.3204   -19.6824 C.3        1  LIG1   0.1100
     26 H3        -21.5057    19.0167   -19.0819 H          1  LIG1   0.0800
     27 O2        -19.9338    19.0312   -20.4330 O.3        1  LIG1  -0.5800
     28 H4        -17.4677    18.5101   -16.9677 H          1  LIG1   0.1200
     29 H5        -19.0451    17.9048   -16.4076 H          1  LIG1   0.1300
     30 H6        -17.5435    17.1418   -15.8318 H          1  LIG1   0.1400
     31 H7        -16.7335    15.6061   -19.0221 H          1  LIG1   0.1700
     32 H8        -16.1408    17.1906   -18.4684 H          1  LIG1   0.1700
     33 H9        -17.3599    14.1305   -16.8556 H          1  LIG1   0.4300
     34 H10       -15.1549    15.7339   -14.5944 H          1  LIG1   0.1700
     35 H11       -14.2153    12.2100   -12.3845 H          1  LIG1   0.1600
     36 H12       -15.4634    10.8484   -14.0114 H          1  LIG1   0.1600
     37 H13       -18.4024    18.3681   -19.0245 H          1  LIG1   0.1400
     38 H14       -18.4536    16.8054   -19.8752 H          1  LIG1   0.1400
     39 H15       -20.1037    15.4302   -19.9185 H          1  LIG1   0.0800
     40 H16       -20.9292    15.2575   -18.3378 H          1  LIG1   0.0800
     41 H17       -22.4196    15.4263   -20.5782 H          1  LIG1   0.0800
     42 H18       -22.9187    16.3647   -19.1322 H          1  LIG1   0.0800
     43 H19       -21.3398    17.3318   -21.5790 H          1  LIG1   0.0800
     44 H20       -22.7701    18.0895   -20.8109 H          1  LIG1   0.0800
     45 H21       -19.3946    18.4687   -21.0057 H          1  LIG1   0.4000
@<TRIPOS>BOND
     1    1    2 1
     2    1   28 1
     3    1   29 1
     4    1   30 1
     5    2    3 1
     6    2    4 1
     7    2   19 1
     8    4    5 1
     9    4   31 1
    10    4   32 1
    11    5    6 2
    12    5    7 am
    13    7    8 1
    14    7   33 1
    15    8   17 ar
    16    8    9 ar
    17    9   10 ar
    18    9   34 1
    19   10   11 1
    20   10   15 ar
    21   11   12 1
    22   11   13 1
    23   11   14 1
    24   15   16 ar
    25   15   35 1
    26   16   17 ar
    27   16   36 1
    28   17   18 1
    29   19   20 1
    30   19   37 1
    31   19   38 1
    32   20   21 1
    33   20   25 1
    34   20   22 1
    35   22   23 1
    36   22   39 1
    37   22   40 1
    38   23   24 1
    39   23   41 1
    40   23   42 1
    41   24   25 1
    42   24   43 1
    43   24   44 1
    44   25   26 1
    45   25   27 1
    46   27   45 1
##########                 Name:     ZINC000423276506
##########          Protonation:                 none
##########               SMILES:   C[C@@H](NC(=O)[C@@H]1C[C@H](C)CC[NH2+]1)C1=NOC(C2=CC=C(Cl)C=C2)=N1
##########            Long Name:   NO_LONG_NAME
##########          FlexRecCode: 1
##########               Number:                 5964
##########   Ligand Source File: /nfs/db/export/3D/EF/ADRO/EFADRO.xddk.db2.gz
##########                 Rank:                    1
##########               Setnum:                   52
##########             Matchnum:                    1
##########                Cloud:                    1
##########        Electrostatic:           -41.665215
##########                 Gist:             0.000000
##########        Van der Waals:           -37.115990
##########  Ligand Polar Desolv:            18.909452
########## Ligand Apolar Desolv:            -3.866521
##########      Internal Energy:             0.000000
##########      Receptor Energy:             0.000000
########## Receptor Desolvation:             0.000000
########## Receptor Hydrophobic:             0.000000
##########         Total Energy:           -63.738274
##########        Ligand Charge:             1.000000
##########            Arbitrary:    +999.9990
##########        Ligand Energy:             0.000000

@<TRIPOS>MOLECULE
 ZINC000423276506      none
   46    48     0     0     0



@<TRIPOS>ATOM
      1 C1        -15.4548    17.0128   -19.5180 C.3        1  LIG1  -0.1600
      2 C2        -16.3270    17.2463   -18.2827 C.3        1  LIG1   0.2400
      3 H1        -16.4593    18.3173   -18.1285 H          1  LIG1   0.1300
      4 N1        -17.6346    16.6165   -18.4822 N.am       1  LIG1  -0.7000
      5 C3        -18.6280    17.3016   -19.0824 C.2        1  LIG1   0.5100
      6 O1        -18.4394    18.4394   -19.4575 O.2        1  LIG1  -0.5200
      7 C4        -19.9731    16.6538   -19.2875 C.3        1  LIG1   0.0100
      8 H2        -19.8566    15.7631   -19.9049 H          1  LIG1   0.1600
      9 C5        -20.9120    17.6393   -19.9867 C.3        1  LIG1  -0.1300
     10 C6        -22.2770    16.9766   -20.1931 C.3        1  LIG1  -0.1000
     11 H3        -22.1681    16.1148   -20.8516 H          1  LIG1   0.0900
     12 C7        -23.2439    17.9819   -20.8217 C.3        1  LIG1  -0.1500
     13 C8        -22.8216    16.5190   -18.8368 C.3        1  LIG1  -0.1500
     14 C9        -21.8120    15.5750   -18.1802 C.3        1  LIG1   0.0000
     15 N2        -20.5369    16.2758   -17.9861 N.4        1  LIG1  -0.4900
     16 H4        -19.8904    15.6686   -17.5049 H          1  LIG1   0.4300
     17 H5        -20.6913    17.1061   -17.4340 H          1  LIG1   0.4400
     18 C10       -15.6582    16.6434   -17.0743 C.2        1  LIG1   0.1600
     19 N3        -14.8217    17.2441   -16.2802 N.2        1  LIG1  -0.3700
     20 O2        -14.4591    16.4935   -15.3993 O.3        1  LIG1   0.0900
     21 C11       -15.0503    15.2983   -15.5516 C.2        1  LIG1   0.2500
     22 C12       -14.8761    14.1111   -14.6891 C.ar       1  LIG1  -0.0500
     23 C13       -15.5584    12.9282   -14.9790 C.ar       1  LIG1  -0.0400
     24 C14       -15.3919    11.8234   -14.1704 C.ar       1  LIG1  -0.1100
     25 C15       -14.5502    11.8861   -13.0723 C.ar       1  LIG1   0.0000
     26 Cl1       -14.3462    10.4916   -12.0588 Cl         1  LIG1  -0.0400
     27 C16       -13.8704    13.0568   -12.7799 C.ar       1  LIG1  -0.1100
     28 C17       -14.0243    14.1662   -13.5845 C.ar       1  LIG1  -0.0600
     29 N4        -15.8226    15.3915   -16.6197 N.2        1  LIG1  -0.4700
     30 H6        -15.3226    15.9419   -19.6722 H          1  LIG1   0.0800
     31 H7        -15.9385    17.4489   -20.3919 H          1  LIG1   0.0800
     32 H8        -14.4819    17.4813   -19.3695 H          1  LIG1   0.0700
     33 H9        -17.7854    15.7065   -18.1822 H          1  LIG1   0.4100
     34 H10       -21.0293    18.5303   -19.3699 H          1  LIG1   0.1000
     35 H11       -20.4926    17.9178   -20.9536 H          1  LIG1   0.1200
     36 H12       -24.2152    17.5093   -20.9681 H          1  LIG1   0.0700
     37 H13       -23.3544    18.8418   -20.1609 H          1  LIG1   0.0700
     38 H14       -22.8512    18.3110   -21.7836 H          1  LIG1   0.0600
     39 H15       -22.9786    17.3867   -18.1961 H          1  LIG1   0.0900
     40 H16       -23.7673    15.9968   -18.9817 H          1  LIG1   0.1200
     41 H17       -22.1967    15.2472   -17.2144 H          1  LIG1   0.1400
     42 H18       -21.6558    14.7076   -18.8215 H          1  LIG1   0.1300
     43 H19       -16.2156    12.8784   -15.8347 H          1  LIG1   0.1500
     44 H20       -15.9191    10.9077   -14.3936 H          1  LIG1   0.1500
     45 H21       -13.2153    13.0997   -11.9222 H          1  LIG1   0.1500
     46 H22       -13.4936    15.0785   -13.3555 H          1  LIG1   0.1500
@<TRIPOS>BOND
     1    1    2 1
     2    1   30 1
     3    1   31 1
     4    1   32 1
     5    2    3 1
     6    2    4 1
     7    2   18 1
     8    4    5 am
     9    4   33 1
    10    5    6 2
    11    5    7 1
    12    7    8 1
    13    7   15 1
    14    7    9 1
    15    9   10 1
    16    9   34 1
    17    9   35 1
    18   10   11 1
    19   10   12 1
    20   10   13 1
    21   12   36 1
    22   12   37 1
    23   12   38 1
    24   13   14 1
    25   13   39 1
    26   13   40 1
    27   14   15 1
    28   14   41 1
    29   14   42 1
    30   15   16 1
    31   15   17 1
    32   18   29 1
    33   18   19 2
    34   19   20 1
    35   20   21 1
    36   21   22 1
    37   21   29 2
    38   22   28 ar
    39   22   23 ar
    40   23   24 ar
    41   23   43 1
    42   24   25 ar
    43   24   44 1
    44   25   26 1
    45   25   27 ar
    46   27   28 ar
    47   27   45 1
    48   28   46 1
##########                 Name:     ZINC000465129598
##########          Protonation:                 none
##########               SMILES:   CC(C)[N@H+]1C[C@H](C)[C@H](NC(=O)C2=CC3=CC=C(Br)C=C3N2)C1
##########            Long Name:   NO_LONG_NAME
##########          FlexRecCode: 1
##########               Number:                15846
##########   Ligand Source File: /nfs/db/export/3D/FG/ADMO/FGADMO.xahn.db2.gz
##########                 Rank:                    1
##########               Setnum:                    5
##########             Matchnum:                    1
##########                Cloud:                    1
##########        Electrostatic:           -40.220318
##########                 Gist:             0.000000
##########        Van der Waals:           -31.998598
##########  Ligand Polar Desolv:            13.514915
########## Ligand Apolar Desolv:            -5.203451
##########      Internal Energy:             0.000000
##########      Receptor Energy:             0.000000
########## Receptor Desolvation:             0.000000
########## Receptor Hydrophobic:             0.000000
##########         Total Energy:           -63.907455
##########        Ligand Charge:             1.000000
##########            Arbitrary:    +999.9990
##########        Ligand Energy:             0.000000

@<TRIPOS>MOLECULE
 ZINC000465129598      none
   45    47     0     0     0



@<TRIPOS>ATOM
      1 C1        -21.2453    15.8356   -20.1368 C.3        1  LIG1  -0.1800
      2 C2        -20.8260    16.9471   -19.1724 C.3        1  LIG1   0.0300
      3 C3        -21.7613    16.9514   -17.9616 C.3        1  LIG1  -0.1800
      4 N1        -19.4467    16.7126   -18.7251 N.4        1  LIG1  -0.3900
      5 H1        -19.3799    15.8232   -18.2531 H          1  LIG1   0.4200
      6 C4        -18.5230    16.7479   -19.8796 C.3        1  LIG1  -0.0100
      7 C5        -17.2109    17.3875   -19.3891 C.3        1  LIG1  -0.1100
      8 H2        -16.9943    18.2910   -19.9589 H          1  LIG1   0.1300
      9 C6        -16.0557    16.3921   -19.5142 C.3        1  LIG1  -0.1600
     10 C7        -17.4624    17.7369   -17.9043 C.3        1  LIG1   0.1300
     11 H3        -17.0186    18.7005   -17.6542 H          1  LIG1   0.1500
     12 N2        -16.9404    16.6849   -17.0285 N.am       1  LIG1  -0.7400
     13 C8        -16.0356    16.9880   -16.0766 C.2        1  LIG1   0.5900
     14 O1        -15.6525    18.1350   -15.9447 O.2        1  LIG1  -0.5000
     15 C9        -15.5117    15.9322   -15.1976 C.2        1  LIG1  -0.0100
     16 C10       -14.6051    16.1140   -14.2020 C.2        1  LIG1  -0.0800
     17 C11       -14.3682    14.8551   -13.5992 C.ar       1  LIG1  -0.1100
     18 C12       -13.5479    14.4325   -12.5452 C.ar       1  LIG1  -0.0400
     19 C13       -13.5320    13.1172   -12.1825 C.ar       1  LIG1  -0.1200
     20 C14       -14.3233    12.1895   -12.8497 C.ar       1  LIG1  -0.0500
     21 Br1       -14.2814    10.3733   -12.3251 Br         1  LIG1  -0.0300
     22 C15       -15.1384    12.5809   -13.8896 C.ar       1  LIG1  -0.1100
     23 C16       -15.1714    13.9170   -14.2775 C.ar       1  LIG1   0.1300
     24 N3        -15.8673    14.5979   -15.2483 N.pl3      1  LIG1  -0.5800
     25 C17       -19.0086    17.8064   -17.8205 C.3        1  LIG1  -0.0200
     26 H4        -20.5790    15.8326   -20.9994 H          1  LIG1   0.1100
     27 H5        -21.1869    14.8729   -19.6290 H          1  LIG1   0.0800
     28 H6        -22.2688    16.0097   -20.4688 H          1  LIG1   0.0800
     29 H7        -20.8847    17.9099   -19.6801 H          1  LIG1   0.1400
     30 H8        -21.4626    17.7432   -17.2746 H          1  LIG1   0.0800
     31 H9        -22.7849    17.1252   -18.2935 H          1  LIG1   0.1100
     32 H10       -21.7025    15.9887   -17.4537 H          1  LIG1   0.0800
     33 H11       -18.3325    15.7347   -20.2338 H          1  LIG1   0.1300
     34 H12       -18.9527    17.3495   -20.6805 H          1  LIG1   0.1400
     35 H13       -15.1348    16.8584   -19.1637 H          1  LIG1   0.0800
     36 H14       -16.2690    15.5101   -18.9102 H          1  LIG1   0.0800
     37 H15       -15.9402    16.0988   -20.5575 H          1  LIG1   0.0600
     38 H16       -17.2458    15.7703   -17.1337 H          1  LIG1   0.4000
     39 H17       -14.1470    17.0510   -13.9211 H          1  LIG1   0.1600
     40 H18       -12.9293    15.1461   -12.0211 H          1  LIG1   0.1400
     41 H19       -12.8984    12.7940   -11.3698 H          1  LIG1   0.1400
     42 H20       -15.7500    11.8530   -14.4020 H          1  LIG1   0.1400
     43 H21       -16.5025    14.2059   -15.8678 H          1  LIG1   0.4100
     44 H22       -19.3705    18.7696   -18.1803 H          1  LIG1   0.1500
     45 H23       -19.3473    17.6234   -16.8008 H          1  LIG1   0.1400
@<TRIPOS>BOND
     1    1    2 1
     2    1   26 1
     3    1   27 1
     4    1   28 1
     5    2    3 1
     6    2    4 1
     7    2   29 1
     8    3   30 1
     9    3   31 1
    10    3   32 1
    11    4    5 1
    12    4   25 1
    13    4    6 1
    14    6    7 1
    15    6   33 1
    16    6   34 1
    17    7    8 1
    18    7    9 1
    19    7   10 1
    20    9   35 1
    21    9   36 1
    22    9   37 1
    23   10   11 1
    24   10   12 1
    25   10   25 1
    26   12   13 am
    27   12   38 1
    28   13   14 2
    29   13   15 1
    30   15   24 1
    31   15   16 2
    32   16   17 1
    33   16   39 1
    34   17   23 ar
    35   17   18 ar
    36   18   19 ar
    37   18   40 1
    38   19   20 ar
    39   19   41 1
    40   20   21 1
    41   20   22 ar
    42   22   23 ar
    43   22   42 1
    44   23   24 1
    45   24   43 1
    46   25   44 1
    47   25   45 1
##########                 Name:     ZINC000290628915
##########          Protonation:                 none
##########               SMILES:   CC1=NC=C(C[N@@H+]2CC[C@H](C(=O)N3CCCC3)C2)N1C1=CC=CC=C1
##########            Long Name:   NO_LONG_NAME
##########          FlexRecCode: 1
##########               Number:                13414
##########   Ligand Source File: /nfs/db/export/3D/EF/ADRO/EFADRO.xapt.db2.gz
##########                 Rank:                    1
##########               Setnum:                   76
##########             Matchnum:                    1
##########                Cloud:                    1
##########        Electrostatic:           -40.457787
##########                 Gist:             0.000000
##########        Van der Waals:           -32.858501
##########  Ligand Polar Desolv:            15.137899
########## Ligand Apolar Desolv:            -5.819905
##########      Internal Energy:             0.000000
##########      Receptor Energy:             0.000000
########## Receptor Desolvation:             0.000000
########## Receptor Hydrophobic:             0.000000
##########         Total Energy:           -63.998291
##########        Ligand Charge:             1.000000
##########            Arbitrary:    +999.9990
##########        Ligand Energy:             0.000000

@<TRIPOS>MOLECULE
 ZINC000290628915      none
   52    55     0     0     0



@<TRIPOS>ATOM
      1 C1        -21.9423    18.4646   -22.0464 C.3        1  LIG1  -0.0800
      2 C2        -21.0732    17.6138   -21.1563 C.2        1  LIG1   0.2700
      3 N1        -21.4806    16.6111   -20.4270 N.2        1  LIG1  -0.4800
      4 C3        -20.4366    16.0888   -19.7665 C.2        1  LIG1   0.0500
      5 C4        -19.3364    16.7918   -20.0960 C.2        1  LIG1  -0.1200
      6 C5        -17.9360    16.5570   -19.5912 C.3        1  LIG1   0.0900
      7 N2        -17.9693    16.3379   -18.1124 N.4        1  LIG1  -0.4000
      8 H1        -18.5823    15.4809   -17.9391 H          1  LIG1   0.4200
      9 C6        -18.5774    17.4833   -17.3259 C.3        1  LIG1   0.0000
     10 C7        -17.5065    17.8863   -16.3288 C.3        1  LIG1  -0.1400
     11 C8        -16.7090    16.6133   -16.1112 C.3        1  LIG1  -0.1300
     12 H2        -17.2629    15.9255   -15.4621 H          1  LIG1   0.1300
     13 C9        -15.3529    16.8886   -15.5495 C.2        1  LIG1   0.5400
     14 O1        -14.8153    17.9556   -15.7583 O.2        1  LIG1  -0.5300
     15 N3        -14.7263    15.9514   -14.8109 N.am       1  LIG1  -0.6100
     16 C10       -15.2575    14.6192   -14.4872 C.3        1  LIG1   0.0900
     17 C11       -14.2095    13.9105   -13.6034 C.3        1  LIG1  -0.1400
     18 C12       -13.3980    15.0928   -13.0107 C.3        1  LIG1  -0.1400
     19 C13       -13.3922    16.0900   -14.1991 C.3        1  LIG1   0.1000
     20 C14       -16.6133    16.0379   -17.5110 C.3        1  LIG1   0.0100
     21 N4        -19.7338    17.7584   -20.9832 N.pl3      1  LIG1  -0.4100
     22 C15       -18.9140    18.7207   -21.5902 C.ar       1  LIG1   0.0800
     23 C16       -17.8611    18.3242   -22.4036 C.ar       1  LIG1  -0.1100
     24 C17       -17.0552    19.2743   -23.0001 C.ar       1  LIG1  -0.1000
     25 C18       -17.2963    20.6191   -22.7878 C.ar       1  LIG1  -0.0900
     26 C19       -18.3444    21.0172   -21.9783 C.ar       1  LIG1  -0.1000
     27 C20       -19.1570    20.0716   -21.3837 C.ar       1  LIG1  -0.1100
     28 H3        -22.9739    18.1178   -21.9858 H          1  LIG1   0.0900
     29 H4        -21.8886    19.5035   -21.7209 H          1  LIG1   0.1000
     30 H5        -21.5930    18.3878   -23.0760 H          1  LIG1   0.0800
     31 H6        -20.4723    15.2499   -19.0874 H          1  LIG1   0.1800
     32 H7        -17.5164    15.6775   -20.0794 H          1  LIG1   0.1300
     33 H8        -17.3183    17.4266   -19.8159 H          1  LIG1   0.1500
     34 H9        -18.8160    18.3010   -18.0078 H          1  LIG1   0.1400
     35 H10       -19.4806    17.1345   -16.8226 H          1  LIG1   0.1400
     36 H11       -16.8712    18.6721   -16.7420 H          1  LIG1   0.1200
     37 H12       -17.9578    18.2219   -15.3930 H          1  LIG1   0.1100
     38 H13       -16.1966    14.7169   -13.9425 H          1  LIG1   0.0700
     39 H14       -15.4153    14.0505   -15.4034 H          1  LIG1   0.0700
     40 H15       -14.6950    13.3406   -12.8114 H          1  LIG1   0.0900
     41 H16       -13.5687    13.2668   -14.2061 H          1  LIG1   0.0800
     42 H17       -13.9029    15.5170   -12.1429 H          1  LIG1   0.0800
     43 H18       -12.3840    14.7829   -12.7580 H          1  LIG1   0.0900
     44 H19       -12.6123    15.8249   -14.9129 H          1  LIG1   0.0800
     45 H20       -13.2477    17.1085   -13.8389 H          1  LIG1   0.0800
     46 H21       -16.4536    14.9634   -17.4915 H          1  LIG1   0.1400
     47 H22       -15.8440    16.5352   -18.0957 H          1  LIG1   0.1500
     48 H23       -17.6720    17.2739   -22.5693 H          1  LIG1   0.1300
     49 H24       -16.2358    18.9664   -23.6325 H          1  LIG1   0.1400
     50 H25       -16.6648    21.3603   -23.2550 H          1  LIG1   0.1400
     51 H26       -18.5303    22.0682   -21.8144 H          1  LIG1   0.1400
     52 H27       -19.9754    20.3830   -20.7514 H          1  LIG1   0.1300
@<TRIPOS>BOND
     1    1    2 1
     2    1   28 1
     3    1   29 1
     4    1   30 1
     5    2   21 1
     6    2    3 2
     7    3    4 1
     8    4    5 2
     9    4   31 1
    10    5    6 1
    11    5   21 1
    12    6    7 1
    13    6   32 1
    14    6   33 1
    15    7    8 1
    16    7   20 1
    17    7    9 1
    18    9   10 1
    19    9   34 1
    20    9   35 1
    21   10   11 1
    22   10   36 1
    23   10   37 1
    24   11   12 1
    25   11   13 1
    26   11   20 1
    27   13   14 2
    28   13   15 am
    29   15   19 1
    30   15   16 1
    31   16   17 1
    32   16   38 1
    33   16   39 1
    34   17   18 1
    35   17   40 1
    36   17   41 1
    37   18   19 1
    38   18   42 1
    39   18   43 1
    40   19   44 1
    41   19   45 1
    42   20   46 1
    43   20   47 1
    44   21   22 1
    45   22   27 ar
    46   22   23 ar
    47   23   24 ar
    48   23   48 1
    49   24   25 ar
    50   24   49 1
    51   25   26 ar
    52   25   50 1
    53   26   27 ar
    54   26   51 1
    55   27   52 1
##########                 Name:     ZINC000023991615
##########          Protonation:                 none
##########               SMILES:   CCCC[N@H+](C)[C@@H](C)C(=O)NC1=CC([N+](=O)[O-])=CC=C1OC
##########            Long Name:   NO_LONG_NAME
##########          FlexRecCode: 1
##########               Number:                 9457
##########   Ligand Source File: /nfs/db/export/3D/DF/ADRO/DFADRO.xasr.db2.gz
##########                 Rank:                    1
##########               Setnum:                  151
##########             Matchnum:                    1
##########                Cloud:                    1
##########        Electrostatic:           -47.952404
##########                 Gist:             0.000000
##########        Van der Waals:           -31.645258
##########  Ligand Polar Desolv:            17.277298
########## Ligand Apolar Desolv:            -4.540030
##########      Internal Energy:             0.000000
##########      Receptor Energy:             0.000000
########## Receptor Desolvation:             0.000000
########## Receptor Hydrophobic:             0.000000
##########         Total Energy:           -66.860397
##########        Ligand Charge:             1.000000
##########            Arbitrary:    +999.9990
##########        Ligand Energy:             0.000000

@<TRIPOS>MOLECULE
 ZINC000023991615      none
   46    46     0     0     0



@<TRIPOS>ATOM
      1 C1        -22.5020    17.7869   -19.7483 C.3        1  LIG1  -0.1600
      2 C2        -21.0057    17.6942   -20.0541 C.3        1  LIG1  -0.1200
      3 C3        -20.2654    17.1668   -18.8232 C.3        1  LIG1  -0.1400
      4 C4        -18.7691    17.0741   -19.1289 C.3        1  LIG1  -0.0200
      5 N1        -18.0584    16.5677   -17.9471 N.4        1  LIG1  -0.3700
      6 H1        -18.6033    15.8369   -17.5145 H          1  LIG1   0.4300
      7 C5        -17.8596    17.6629   -16.9887 C.3        1  LIG1  -0.0600
      8 C6        -16.7533    16.0298   -18.3538 C.3        1  LIG1   0.0100
      9 H2        -16.9010    15.2170   -19.0650 H          1  LIG1   0.1700
     10 C7        -15.9272    17.1379   -19.0102 C.3        1  LIG1  -0.1800
     11 C8        -16.0241    15.5104   -17.1417 C.2        1  LIG1   0.5000
     12 O1        -14.9493    15.9803   -16.8331 O.2        1  LIG1  -0.5000
     13 N2        -16.5660    14.5238   -16.4007 N.am       1  LIG1  -0.6300
     14 C9        -15.8879    14.0407   -15.2736 C.ar       1  LIG1   0.1000
     15 C10       -15.0597    14.8828   -14.5467 C.ar       1  LIG1  -0.0300
     16 C11       -14.3920    14.4042   -13.4348 C.ar       1  LIG1  -0.0600
     17 N3        -13.5084    15.3041   -12.6602 N.pl3      1  LIG1   0.0300
     18 O2        -13.3702    16.4649   -13.0026 O.2        1  LIG1  -0.1600
     19 O3        -12.9195    14.8841   -11.6803 O.2        1  LIG1  -0.1500
     20 C12       -14.5480    13.0873   -13.0445 C.ar       1  LIG1  -0.0100
     21 C13       -15.3722    12.2418   -13.7642 C.ar       1  LIG1  -0.1900
     22 C14       -16.0485    12.7148   -14.8767 C.ar       1  LIG1   0.1700
     23 O4        -16.8596    11.8848   -15.5852 O.3        1  LIG1  -0.3100
     24 C15       -16.2611    11.1504   -16.6551 C.3        1  LIG1   0.0200
     25 H3        -23.0294    18.1626   -20.6250 H          1  LIG1   0.0600
     26 H4        -22.8822    16.7983   -19.4915 H          1  LIG1   0.0600
     27 H5        -22.6601    18.4660   -18.9104 H          1  LIG1   0.0700
     28 H6        -20.8474    17.0151   -20.8919 H          1  LIG1   0.0700
     29 H7        -20.6253    18.6829   -20.3108 H          1  LIG1   0.0700
     30 H8        -20.4237    17.8458   -17.9854 H          1  LIG1   0.0900
     31 H9        -20.6458    16.1781   -18.5665 H          1  LIG1   0.0900
     32 H10       -18.6108    16.3950   -19.9668 H          1  LIG1   0.1400
     33 H11       -18.3888    18.0627   -19.3857 H          1  LIG1   0.1300
     34 H12       -17.3323    17.2872   -16.1118 H          1  LIG1   0.1300
     35 H13       -17.2710    18.4523   -17.4559 H          1  LIG1   0.1300
     36 H14       -18.8280    18.0620   -16.6868 H          1  LIG1   0.1300
     37 H15       -14.9588    16.7388   -19.3119 H          1  LIG1   0.1100
     38 H16       -16.4547    17.5135   -19.8868 H          1  LIG1   0.0900
     39 H17       -15.7796    17.9507   -18.2990 H          1  LIG1   0.1100
     40 H18       -17.4256    14.1480   -16.6474 H          1  LIG1   0.4300
     41 H19       -14.9359    15.9121   -14.8495 H          1  LIG1   0.1800
     42 H20       -14.0245    12.7177   -12.1751 H          1  LIG1   0.1700
     43 H21       -15.4919    11.2135   -13.4565 H          1  LIG1   0.1600
     44 H22       -17.0162    10.5287   -17.1360 H          1  LIG1   0.0700
     45 H23       -15.8443    11.8452   -17.3842 H          1  LIG1   0.0700
     46 H24       -15.4662    10.5172   -16.2610 H          1  LIG1   0.1200
@<TRIPOS>BOND
     1    1    2 1
     2    1   25 1
     3    1   26 1
     4    1   27 1
     5    2    3 1
     6    2   28 1
     7    2   29 1
     8    3    4 1
     9    3   30 1
    10    3   31 1
    11    4    5 1
    12    4   32 1
    13    4   33 1
    14    5    6 1
    15    5    7 1
    16    5    8 1
    17    7   34 1
    18    7   35 1
    19    7   36 1
    20    8    9 1
    21    8   10 1
    22    8   11 1
    23   10   37 1
    24   10   38 1
    25   10   39 1
    26   11   12 2
    27   11   13 am
    28   13   14 1
    29   13   40 1
    30   14   22 ar
    31   14   15 ar
    32   15   16 ar
    33   15   41 1
    34   16   17 1
    35   16   20 ar
    36   17   18 2
    37   17   19 2
    38   20   21 ar
    39   20   42 1
    40   21   22 ar
    41   21   43 1
    42   22   23 1
    43   23   24 1
    44   24   44 1
    45   24   45 1
    46   24   46 1
##########                 Name:     ZINC000367970677
##########          Protonation:                 none
##########               SMILES:   CC1=CC=CC=C1N1C=C(C[NH2+][C@@H]2CC3=CC=CC=C3[C@@H]2O)N=N1
##########            Long Name:   NO_LONG_NAME
##########          FlexRecCode: 1
##########               Number:                 8441
##########   Ligand Source File: /nfs/db/export/3D/DE/ADMO/DEADMO.xajs.db2.gz
##########                 Rank:                    1
##########               Setnum:                  104
##########             Matchnum:                    1
##########                Cloud:                    1
##########        Electrostatic:           -49.902481
##########                 Gist:             0.000000
##########        Van der Waals:           -33.634102
##########  Ligand Polar Desolv:            16.724598
########## Ligand Apolar Desolv:            -4.662419
##########      Internal Energy:             0.000000
##########      Receptor Energy:             0.000000
########## Receptor Desolvation:             0.000000
########## Receptor Hydrophobic:             0.000000
##########         Total Energy:           -71.474403
##########        Ligand Charge:             1.000000
##########            Arbitrary:    +999.9990
##########        Ligand Energy:             0.000000

@<TRIPOS>MOLECULE
 ZINC000367970677      none
   45    48     0     0     0



@<TRIPOS>ATOM
      1 C1        -13.3821    15.7458   -13.4789 C.3        1  LIG1  -0.1200
      2 C2        -13.9770    14.3784   -13.6967 C.ar       1  LIG1  -0.0500
      3 C3        -13.6543    13.3407   -12.8446 C.ar       1  LIG1  -0.1000
      4 C4        -14.2002    12.0856   -13.0434 C.ar       1  LIG1  -0.0800
      5 C5        -15.0704    11.8659   -14.0952 C.ar       1  LIG1  -0.1100
      6 C6        -15.3965    12.9002   -14.9510 C.ar       1  LIG1  -0.0900
      7 C7        -14.8546    14.1622   -14.7506 C.ar       1  LIG1   0.0800
      8 N1        -15.1842    15.2142   -15.6175 N.pl3      1  LIG1  -0.2200
      9 C8        -16.0313    15.1381   -16.6803 C.2        1  LIG1   0.0000
     10 C9        -16.0549    16.3751   -17.2294 C.2        1  LIG1  -0.1000
     11 C10       -16.8467    16.8111   -18.4353 C.3        1  LIG1   0.1000
     12 N2        -18.2168    16.2907   -18.3357 N.4        1  LIG1  -0.4900
     13 H1        -18.1917    15.2828   -18.2960 H          1  LIG1   0.4300
     14 H2        -18.6528    16.6493   -17.4994 H          1  LIG1   0.4400
     15 C11       -18.9886    16.7155   -19.5111 C.3        1  LIG1   0.0400
     16 H3        -18.5348    16.3384   -20.4275 H          1  LIG1   0.1700
     17 C12       -19.1188    18.2528   -19.5557 C.3        1  LIG1  -0.1000
     18 C13       -20.4976    18.5174   -20.1214 C.ar       1  LIG1  -0.0900
     19 C14       -21.0358    19.6678   -20.6725 C.ar       1  LIG1  -0.1000
     20 C15       -22.3392    19.6756   -21.1302 C.ar       1  LIG1  -0.0900
     21 C16       -23.1093    18.5315   -21.0380 C.ar       1  LIG1  -0.1100
     22 C17       -22.5742    17.3826   -20.4883 C.ar       1  LIG1  -0.0800
     23 C18       -21.2680    17.3730   -20.0291 C.ar       1  LIG1  -0.1500
     24 C19       -20.4580    16.2569   -19.3977 C.3        1  LIG1   0.1400
     25 H4        -20.6096    15.3249   -19.9421 H          1  LIG1   0.1000
     26 O1        -20.8236    16.0939   -18.0258 O.3        1  LIG1  -0.5700
     27 N3        -15.2374    17.1348   -16.4918 N.2        1  LIG1  -0.2400
     28 N4        -14.7423    16.4211   -15.5434 N.2        1  LIG1  -0.0400
     29 H5        -12.7229    15.7214   -12.6112 H          1  LIG1   0.0900
     30 H6        -12.8118    16.0385   -14.3604 H          1  LIG1   0.0800
     31 H7        -14.1816    16.4668   -13.3077 H          1  LIG1   0.0600
     32 H8        -12.9747    13.5092   -12.0224 H          1  LIG1   0.1400
     33 H9        -13.9461    11.2754   -12.3760 H          1  LIG1   0.1400
     34 H10       -15.4951    10.8849   -14.2481 H          1  LIG1   0.1400
     35 H11       -16.0759    12.7279   -15.7728 H          1  LIG1   0.1300
     36 H12       -16.5742    14.2675   -17.0171 H          1  LIG1   0.2000
     37 H13       -16.8737    17.8998   -18.4781 H          1  LIG1   0.1500
     38 H14       -16.3757    16.4234   -19.3387 H          1  LIG1   0.1500
     39 H15       -19.0357    18.6687   -18.5516 H          1  LIG1   0.1100
     40 H16       -18.3550    18.6783   -20.2066 H          1  LIG1   0.1100
     41 H17       -20.4347    20.5622   -20.7446 H          1  LIG1   0.1300
     42 H18       -22.7561    20.5747   -21.5594 H          1  LIG1   0.1400
     43 H19       -24.1286    18.5360   -21.3950 H          1  LIG1   0.1400
     44 H20       -23.1767    16.4892   -20.4163 H          1  LIG1   0.1300
     45 H21       -20.2918    15.4398   -17.5520 H          1  LIG1   0.4100
@<TRIPOS>BOND
     1    1    2 1
     2    1   29 1
     3    1   30 1
     4    1   31 1
     5    2    7 ar
     6    2    3 ar
     7    3    4 ar
     8    3   32 1
     9    4    5 ar
    10    4   33 1
    11    5    6 ar
    12    5   34 1
    13    6    7 ar
    14    6   35 1
    15    7    8 1
    16    8   28 1
    17    8    9 1
    18    9   10 2
    19    9   36 1
    20   10   11 1
    21   10   27 1
    22   11   12 1
    23   11   37 1
    24   11   38 1
    25   12   13 1
    26   12   14 1
    27   12   15 1
    28   15   16 1
    29   15   24 1
    30   15   17 1
    31   17   18 1
    32   17   39 1
    33   17   40 1
    34   18   23 ar
    35   18   19 ar
    36   19   20 ar
    37   19   41 1
    38   20   21 ar
    39   20   42 1
    40   21   22 ar
    41   21   43 1
    42   22   23 ar
    43   22   44 1
    44   23   24 1
    45   24   25 1
    46   24   26 1
    47   26   45 1
    48   27   28 2
##########                 Name:     ZINC000681711644
##########          Protonation:                 none
##########               SMILES:   CCC1=CC=CC=C1NC(=O)CNC(=O)C[N@H+]1CC[C@H]2CCC[C@H]21
##########            Long Name:   NO_LONG_NAME
##########          FlexRecCode: 1
##########               Number:                 3400
##########   Ligand Source File: /nfs/db/export/3D/EE/ADMO/EEADMO.xavf.db2.gz
##########                 Rank:                    1
##########               Setnum:                  170
##########             Matchnum:                    1
##########                Cloud:                    1
##########        Electrostatic:           -37.059044
##########                 Gist:             0.000000
##########        Van der Waals:           -36.654694
##########  Ligand Polar Desolv:            11.441525
########## Ligand Apolar Desolv:            -5.283613
##########      Internal Energy:             0.000000
##########      Receptor Energy:             0.000000
########## Receptor Desolvation:             0.000000
########## Receptor Hydrophobic:             0.000000
##########         Total Energy:           -67.555824
##########        Ligand Charge:             1.000000
##########            Arbitrary:    +999.9990
##########        Ligand Energy:             0.000000

@<TRIPOS>MOLECULE
 ZINC000681711644      none
   52    54     0     0     0



@<TRIPOS>ATOM
      1 C1        -12.1381    14.7000   -13.7835 C.3        1  LIG1  -0.1500
      2 C2        -13.2418    14.6415   -12.7256 C.3        1  LIG1  -0.0900
      3 C3        -14.2087    13.5378   -13.0689 C.ar       1  LIG1  -0.1000
      4 C4        -14.0020    12.2618   -12.5828 C.ar       1  LIG1  -0.1000
      5 C5        -14.8887    11.2481   -12.8978 C.ar       1  LIG1  -0.1200
      6 C6        -15.9845    11.5085   -13.6997 C.ar       1  LIG1  -0.1100
      7 C7        -16.1971    12.7827   -14.1887 C.ar       1  LIG1  -0.1100
      8 C8        -15.3118    13.8039   -13.8699 C.ar       1  LIG1   0.1300
      9 N1        -15.5246    15.0959   -14.3633 N.am       1  LIG1  -0.6600
     10 C9        -16.7793    15.5312   -14.5933 C.2        1  LIG1   0.5100
     11 O1        -17.7238    14.8030   -14.3726 O.2        1  LIG1  -0.5200
     12 C10       -17.0083    16.9226   -15.1247 C.3        1  LIG1   0.1000
     13 N2        -17.7040    16.8454   -16.4117 N.am       1  LIG1  -0.6900
     14 C11       -18.0162    17.9747   -17.0778 C.2        1  LIG1   0.5100
     15 O2        -17.7214    19.0548   -16.6116 O.2        1  LIG1  -0.5300
     16 C12       -18.7316    17.8953   -18.4018 C.3        1  LIG1  -0.0300
     17 N3        -19.5814    16.6972   -18.4281 N.4        1  LIG1  -0.3700
     18 H1        -19.0129    15.8726   -18.3058 H          1  LIG1   0.4300
     19 C13       -20.5828    16.7745   -17.3527 C.3        1  LIG1  -0.0100
     20 C14       -21.9205    16.2811   -17.9229 C.3        1  LIG1  -0.1400
     21 C15       -21.6543    15.9446   -19.4035 C.3        1  LIG1  -0.1000
     22 H2        -21.6354    14.8705   -19.5876 H          1  LIG1   0.1200
     23 C16       -22.7101    16.6665   -20.2626 C.3        1  LIG1  -0.1200
     24 C17       -21.9712    17.7775   -21.0357 C.3        1  LIG1  -0.1200
     25 C18       -20.7013    18.0499   -20.1909 C.3        1  LIG1  -0.1400
     26 C19       -20.2953    16.6226   -19.7120 C.3        1  LIG1   0.0200
     27 H3        -19.7285    16.0850   -20.4722 H          1  LIG1   0.1600
     28 H4        -11.4388    15.4984   -13.5352 H          1  LIG1   0.0600
     29 H5        -11.6083    13.7477   -13.8087 H          1  LIG1   0.0500
     30 H6        -12.5809    14.8955   -14.7601 H          1  LIG1   0.0600
     31 H7        -12.7992    14.4461   -11.7490 H          1  LIG1   0.0700
     32 H8        -13.7718    15.5938   -12.7003 H          1  LIG1   0.0800
     33 H9        -13.1469    12.0553   -11.9563 H          1  LIG1   0.1300
     34 H10       -14.7243    10.2510   -12.5170 H          1  LIG1   0.1300
     35 H11       -16.6747    10.7147   -13.9441 H          1  LIG1   0.1300
     36 H12       -17.0532    12.9855   -14.8152 H          1  LIG1   0.1400
     37 H13       -14.7692    15.6781   -14.5397 H          1  LIG1   0.4100
     38 H14       -17.6158    17.4865   -14.4167 H          1  LIG1   0.1100
     39 H15       -16.0492    17.4226   -15.2595 H          1  LIG1   0.1100
     40 H16       -17.9398    15.9815   -16.7845 H          1  LIG1   0.4200
     41 H17       -19.3505    18.7826   -18.5341 H          1  LIG1   0.1600
     42 H18       -17.9996    17.8393   -19.2074 H          1  LIG1   0.1600
     43 H19       -20.2800    16.1401   -16.5197 H          1  LIG1   0.1400
     44 H20       -20.6832    17.8059   -17.0149 H          1  LIG1   0.1200
     45 H21       -22.2502    15.3898   -17.3890 H          1  LIG1   0.1100
     46 H22       -22.6735    17.0654   -17.8458 H          1  LIG1   0.1100
     47 H23       -23.1648    15.9649   -20.9619 H          1  LIG1   0.0800
     48 H24       -23.4759    17.1041   -19.6222 H          1  LIG1   0.0800
     49 H25       -21.6989    17.4316   -22.0329 H          1  LIG1   0.0800
     50 H26       -22.5879    18.6742   -21.0972 H          1  LIG1   0.0900
     51 H27       -19.9148    18.4883   -20.8053 H          1  LIG1   0.1000
     52 H28       -20.9326    18.6917   -19.3408 H          1  LIG1   0.0900
@<TRIPOS>BOND
     1    1    2 1
     2    1   28 1
     3    1   29 1
     4    1   30 1
     5    2    3 1
     6    2   31 1
     7    2   32 1
     8    3    8 ar
     9    3    4 ar
    10    4    5 ar
    11    4   33 1
    12    5    6 ar
    13    5   34 1
    14    6    7 ar
    15    6   35 1
    16    7    8 ar
    17    7   36 1
    18    8    9 1
    19    9   10 am
    20    9   37 1
    21   10   11 2
    22   10   12 1
    23   12   13 1
    24   12   38 1
    25   12   39 1
    26   13   14 am
    27   13   40 1
    28   14   15 2
    29   14   16 1
    30   16   17 1
    31   16   41 1
    32   16   42 1
    33   17   18 1
    34   17   26 1
    35   17   19 1
    36   19   20 1
    37   19   43 1
    38   19   44 1
    39   20   21 1
    40   20   45 1
    41   20   46 1
    42   21   22 1
    43   21   26 1
    44   21   23 1
    45   23   24 1
    46   23   47 1
    47   23   48 1
    48   24   25 1
    49   24   49 1
    50   24   50 1
    51   25   26 1
    52   25   51 1
    53   25   52 1
    54   26   27 1
##########                 Name:     ZINC000130532671
##########          Protonation:                 none
##########               SMILES:   CCOC(=O)C1=NN(C2=CC=CC=C2)C=C1C[N@H+](C)[C@@H]1CCSC1
##########            Long Name:   NO_LONG_NAME
##########          FlexRecCode: 1
##########               Number:                14468
##########   Ligand Source File: /nfs/db/export/3D/EF/ADMO/EFADMO.xalu.db2.gz
##########                 Rank:                    1
##########               Setnum:                    2
##########             Matchnum:                    1
##########                Cloud:                    1
##########        Electrostatic:           -43.062458
##########                 Gist:             0.000000
##########        Van der Waals:           -34.613220
##########  Ligand Polar Desolv:            15.694646
########## Ligand Apolar Desolv:            -6.862094
##########      Internal Energy:             0.000000
##########      Receptor Energy:             0.000000
########## Receptor Desolvation:             0.000000
########## Receptor Hydrophobic:             0.000000
##########         Total Energy:           -68.843124
##########        Ligand Charge:             1.000000
##########            Arbitrary:    +999.9990
##########        Ligand Energy:             0.000000

@<TRIPOS>MOLECULE
 ZINC000130532671      none
   48    50     0     0     0



@<TRIPOS>ATOM
      1 C1        -11.6039    20.4498   -15.0016 C.3        1  LIG1  -0.1600
      2 C2        -12.9630    20.2394   -15.6720 C.3        1  LIG1   0.0600
      3 O1        -13.4525    18.9069   -15.3661 O.3        1  LIG1  -0.3300
      4 C3        -14.6468    18.5600   -15.8845 C.2        1  LIG1   0.5600
      5 O2        -15.2623    19.3491   -16.5734 O.2        1  LIG1  -0.5100
      6 C4        -15.2070    17.2220   -15.6156 C.2        1  LIG1   0.0200
      7 N1        -14.6540    16.2732   -14.8850 N.2        1  LIG1  -0.2000
      8 N2        -15.4119    15.2361   -14.8605 N.pl3      1  LIG1  -0.2000
      9 C5        -15.1248    14.0480   -14.1755 C.ar       1  LIG1   0.1000
     10 C6        -16.0168    12.9848   -14.2226 C.ar       1  LIG1  -0.1200
     11 C7        -15.7310    11.8150   -13.5463 C.ar       1  LIG1  -0.1000
     12 C8        -14.5579    11.7020   -12.8227 C.ar       1  LIG1  -0.1000
     13 C9        -13.6679    12.7592   -12.7734 C.ar       1  LIG1  -0.1000
     14 C10       -13.9451    13.9294   -13.4527 C.ar       1  LIG1  -0.0900
     15 C11       -16.5327    15.4596   -15.5954 C.2        1  LIG1   0.0400
     16 C12       -16.4424    16.7167   -16.0882 C.2        1  LIG1  -0.2200
     17 C13       -17.4420    17.4264   -16.9646 C.3        1  LIG1   0.0800
     18 N3        -17.8979    16.5162   -18.0237 N.4        1  LIG1  -0.3800
     19 H1        -18.3314    15.7060   -17.6071 H          1  LIG1   0.4300
     20 C14       -16.7483    16.0940   -18.8349 C.3        1  LIG1  -0.0600
     21 C15       -18.8799    17.2134   -18.8844 C.3        1  LIG1   0.0300
     22 H2        -18.4369    18.0785   -19.3365 H          1  LIG1   0.1500
     23 C16       -20.0869    17.6345   -18.0610 C.3        1  LIG1  -0.1600
     24 C17       -21.1234    18.1178   -19.0620 C.3        1  LIG1  -0.0700
     25 S1        -20.9734    16.9886   -20.4767 S.3        1  LIG1  -0.2200
     26 C18       -19.3841    16.2721   -19.9641 C.3        1  LIG1  -0.1200
     27 H3        -11.2365    21.4500   -15.2313 H          1  LIG1   0.0700
     28 H4        -11.7104    20.3408   -13.9223 H          1  LIG1   0.0700
     29 H5        -10.8966    19.7086   -15.3736 H          1  LIG1   0.0900
     30 H6        -13.6704    20.9806   -15.3000 H          1  LIG1   0.0800
     31 H7        -12.8566    20.3483   -16.7512 H          1  LIG1   0.0800
     32 H8        -16.9332    13.0726   -14.7873 H          1  LIG1   0.1300
     33 H9        -16.4243    10.9879   -13.5823 H          1  LIG1   0.1400
     34 H10       -14.3367    10.7863   -12.2946 H          1  LIG1   0.1400
     35 H11       -12.7529    12.6681   -12.2071 H          1  LIG1   0.1400
     36 H12       -13.2495    14.7547   -13.4142 H          1  LIG1   0.1500
     37 H13       -17.3454    14.7658   -15.7528 H          1  LIG1   0.2000
     38 H14       -18.2950    17.7399   -16.3628 H          1  LIG1   0.1500
     39 H15       -16.9735    18.3017   -17.4146 H          1  LIG1   0.1400
     40 H16       -17.0867    15.4186   -19.6208 H          1  LIG1   0.1200
     41 H17       -16.2801    16.9694   -19.2850 H          1  LIG1   0.1300
     42 H18       -16.0253    15.5806   -18.2011 H          1  LIG1   0.1300
     43 H19       -20.4627    16.7846   -17.5071 H          1  LIG1   0.1200
     44 H20       -19.8068    18.4349   -17.3895 H          1  LIG1   0.1100
     45 H21       -22.1487    18.0826   -18.6261 H          1  LIG1   0.1300
     46 H22       -20.9261    19.1719   -19.3659 H          1  LIG1   0.1100
     47 H23       -18.6901    16.2467   -20.8046 H          1  LIG1   0.1300
     48 H24       -19.5311    15.2689   -19.5635 H          1  LIG1   0.1200
@<TRIPOS>BOND
     1    1    2 1
     2    1   27 1
     3    1   28 1
     4    1   29 1
     5    2    3 1
     6    2   30 1
     7    2   31 1
     8    3    4 1
     9    4    5 2
    10    4    6 1
    11    6   16 1
    12    6    7 2
    13    7    8 1
    14    8    9 1
    15    8   15 1
    16    9   14 ar
    17    9   10 ar
    18   10   11 ar
    19   10   32 1
    20   11   12 ar
    21   11   33 1
    22   12   13 ar
    23   12   34 1
    24   13   14 ar
    25   13   35 1
    26   14   36 1
    27   15   16 2
    28   15   37 1
    29   16   17 1
    30   17   18 1
    31   17   38 1
    32   17   39 1
    33   18   19 1
    34   18   20 1
    35   18   21 1
    36   20   40 1
    37   20   41 1
    38   20   42 1
    39   21   22 1
    40   21   26 1
    41   21   23 1
    42   23   24 1
    43   23   43 1
    44   23   44 1
    45   24   25 1
    46   24   45 1
    47   24   46 1
    48   25   26 1
    49   26   47 1
    50   26   48 1
##########                 Name:     ZINC000277379419
##########          Protonation:                 none
##########               SMILES:   CC1=C(CNC(=O)C[NH2+][C@@H]2CCOC[C@@H]2C)SC=C1
##########            Long Name:   NO_LONG_NAME
##########          FlexRecCode: 1
##########               Number:                  704
##########   Ligand Source File: /nfs/db/export/3D/CD/ADRO/CDADRO.xbna.db2.gz
##########                 Rank:                    1
##########               Setnum:                   73
##########             Matchnum:                    1
##########                Cloud:                    1
##########        Electrostatic:           -46.849529
##########                 Gist:             0.000000
##########        Van der Waals:           -26.735910
##########  Ligand Polar Desolv:            12.256131
########## Ligand Apolar Desolv:            -2.645686
##########      Internal Energy:             0.000000
##########      Receptor Energy:             0.000000
########## Receptor Desolvation:             0.000000
########## Receptor Hydrophobic:             0.000000
##########         Total Energy:           -63.974998
##########        Ligand Charge:             1.000000
##########            Arbitrary:    +999.9990
##########        Ligand Energy:             0.000000

@<TRIPOS>MOLECULE
 ZINC000277379419      none
   42    43     0     0     0



@<TRIPOS>ATOM
      1 C1        -14.1683    14.7770   -12.8824 C.3        1  LIG1  -0.1000
      2 C2        -15.0513    13.8675   -13.6975 C.2        1  LIG1  -0.0600
      3 C3        -15.7165    14.2893   -14.7740 C.2        1  LIG1  -0.2400
      4 C4        -15.6852    15.6937   -15.3195 C.3        1  LIG1   0.2000
      5 N1        -16.5383    15.7753   -16.5076 N.am       1  LIG1  -0.7000
      6 C5        -16.6646    16.9436   -17.1676 C.2        1  LIG1   0.5000
      7 O1        -16.0722    17.9273   -16.7779 O.2        1  LIG1  -0.5300
      8 C6        -17.5423    17.0274   -18.3900 C.3        1  LIG1  -0.0300
      9 N2        -18.9213    16.6735   -18.0278 N.4        1  LIG1  -0.4900
     10 H1        -18.9422    15.7330   -17.6626 H          1  LIG1   0.4400
     11 H2        -19.2598    17.3145   -17.3260 H          1  LIG1   0.4300
     12 C7        -19.7767    16.7553   -19.2192 C.3        1  LIG1   0.0300
     13 H3        -19.2403    16.3586   -20.0812 H          1  LIG1   0.1500
     14 C8        -20.1547    18.2168   -19.4792 C.3        1  LIG1  -0.1800
     15 C9        -21.1091    18.2840   -20.6744 C.3        1  LIG1   0.0600
     16 O2        -22.2613    17.4819   -20.4080 O.3        1  LIG1  -0.3600
     17 C10       -21.9739    16.0971   -20.2037 C.3        1  LIG1   0.0700
     18 C11       -21.0532    15.9401   -18.9905 C.3        1  LIG1  -0.1500
     19 H4        -20.7978    14.8885   -18.8605 H          1  LIG1   0.1100
     20 C12       -21.7670    16.4515   -17.7374 C.3        1  LIG1  -0.1700
     21 S1        -16.6351    12.9554   -15.4598 S.3        1  LIG1   0.1200
     22 C13       -16.0468    11.8678   -14.2090 C.2        1  LIG1  -0.1900
     23 C14       -15.2290    12.5298   -13.3891 C.2        1  LIG1  -0.1400
     24 H5        -14.1831    15.7785   -13.3122 H          1  LIG1   0.0700
     25 H6        -14.5354    14.8162   -11.8568 H          1  LIG1   0.0700
     26 H7        -13.1479    14.3940   -12.8888 H          1  LIG1   0.0800
     27 H8        -16.0510    16.3863   -14.5613 H          1  LIG1   0.0900
     28 H9        -14.6620    15.9564   -15.5881 H          1  LIG1   0.1000
     29 H10       -17.0122    14.9884   -16.8193 H          1  LIG1   0.4100
     30 H11       -17.5196    18.0433   -18.7845 H          1  LIG1   0.1600
     31 H12       -17.1765    16.3349   -19.1481 H          1  LIG1   0.1600
     32 H13       -20.6458    18.6284   -18.5974 H          1  LIG1   0.1000
     33 H14       -19.2554    18.7923   -19.6983 H          1  LIG1   0.1000
     34 H15       -21.4152    19.3173   -20.8374 H          1  LIG1   0.1200
     35 H16       -20.6036    17.9098   -21.5646 H          1  LIG1   0.0700
     36 H17       -22.9029    15.5550   -20.0275 H          1  LIG1   0.1200
     37 H18       -21.4797    15.6942   -21.0879 H          1  LIG1   0.0700
     38 H19       -22.6755    15.8715   -17.5745 H          1  LIG1   0.0900
     39 H20       -21.1086    16.3453   -16.8753 H          1  LIG1   0.0500
     40 H21       -22.0257    17.5021   -17.8698 H          1  LIG1   0.0800
     41 H22       -16.3045    10.8227   -14.1210 H          1  LIG1   0.1700
     42 H23       -14.7482    12.0597   -12.5440 H          1  LIG1   0.1500
@<TRIPOS>BOND
     1    1    2 1
     2    1   24 1
     3    1   25 1
     4    1   26 1
     5    2   23 1
     6    2    3 2
     7    3    4 1
     8    3   21 1
     9    4    5 1
    10    4   27 1
    11    4   28 1
    12    5    6 am
    13    5   29 1
    14    6    7 2
    15    6    8 1
    16    8    9 1
    17    8   30 1
    18    8   31 1
    19    9   10 1
    20    9   11 1
    21    9   12 1
    22   12   13 1
    23   12   18 1
    24   12   14 1
    25   14   15 1
    26   14   32 1
    27   14   33 1
    28   15   16 1
    29   15   34 1
    30   15   35 1
    31   16   17 1
    32   17   18 1
    33   17   36 1
    34   17   37 1
    35   18   19 1
    36   18   20 1
    37   20   38 1
    38   20   39 1
    39   20   40 1
    40   21   22 1
    41   22   23 2
    42   22   41 1
    43   23   42 1
##########                 Name:     ZINC000407322128
##########          Protonation:                 none
##########               SMILES:   CC1=NC(C2=CC=CC(NC(=O)[C@@H]3CC[C@H](C4CC4)[NH2+]3)=C2)=NN1
##########            Long Name:   NO_LONG_NAME
##########          FlexRecCode: 1
##########               Number:                 4764
##########   Ligand Source File: /nfs/db/export/3D/DE/ADRO/DEADRO.xcdb.db2.gz
##########                 Rank:                    1
##########               Setnum:                   77
##########             Matchnum:                    1
##########                Cloud:                    1
##########        Electrostatic:           -46.966164
##########                 Gist:             0.000000
##########        Van der Waals:           -31.893114
##########  Ligand Polar Desolv:            18.814266
########## Ligand Apolar Desolv:            -4.173489
##########      Internal Energy:             0.000000
##########      Receptor Energy:             0.000000
########## Receptor Desolvation:             0.000000
########## Receptor Hydrophobic:             0.000000
##########         Total Energy:           -64.218498
##########        Ligand Charge:             1.000000
##########            Arbitrary:    +999.9990
##########        Ligand Energy:             0.000000

@<TRIPOS>MOLECULE
 ZINC000407322128      none
   45    48     0     0     0



@<TRIPOS>ATOM
      1 C1        -14.7124    10.6002   -12.4244 C.3        1  LIG1  -0.0800
      2 C2        -14.3577    12.0390   -12.6988 C.2        1  LIG1   0.3000
      3 N1        -14.8797    12.7916   -13.6309 N.2        1  LIG1  -0.5300
      4 C3        -14.3308    14.0130   -13.5878 C.2        1  LIG1   0.2600
      5 C4        -14.6666    15.1445   -14.4875 C.ar       1  LIG1   0.0100
      6 C5        -14.0170    16.3688   -14.3426 C.ar       1  LIG1  -0.0700
      7 C6        -14.3301    17.4206   -15.1807 C.ar       1  LIG1  -0.1000
      8 C7        -15.2872    17.2637   -16.1649 C.ar       1  LIG1  -0.1200
      9 C8        -15.9400    16.0463   -16.3166 C.ar       1  LIG1   0.1200
     10 N2        -16.9089    15.8912   -17.3145 N.am       1  LIG1  -0.6400
     11 C9        -16.8183    16.5996   -18.4574 C.2        1  LIG1   0.5100
     12 O1        -15.8970    17.3714   -18.6212 O.2        1  LIG1  -0.5000
     13 C10       -17.8615    16.4327   -19.5321 C.3        1  LIG1   0.0100
     14 H1        -17.5746    15.6420   -20.2254 H          1  LIG1   0.1700
     15 C11       -18.0870    17.7666   -20.2871 C.3        1  LIG1  -0.1400
     16 C12       -19.5193    17.6089   -20.8475 C.3        1  LIG1  -0.1300
     17 C13       -20.1852    16.5450   -19.9553 C.3        1  LIG1   0.0600
     18 H2        -20.4632    15.6784   -20.5550 H          1  LIG1   0.1400
     19 C14       -21.4272    17.1326   -19.2821 C.3        1  LIG1  -0.2100
     20 C15       -22.7903    16.5953   -19.7223 C.3        1  LIG1  -0.1400
     21 C16       -22.2257    16.2179   -18.3513 C.3        1  LIG1  -0.1800
     22 N3        -19.1905    16.1480   -18.9330 N.4        1  LIG1  -0.5000
     23 H3        -19.2793    15.1648   -18.7244 H          1  LIG1   0.4400
     24 H4        -19.3162    16.6947   -18.0942 H          1  LIG1   0.4400
     25 C17       -15.6274    14.9840   -15.4824 C.ar       1  LIG1  -0.0800
     26 N4        -13.4459    14.0434   -12.6156 N.2        1  LIG1  -0.3100
     27 N5        -13.4537    12.7705   -12.0226 N.pl3      1  LIG1  -0.4800
     28 H5        -15.4751    10.2730   -13.1308 H          1  LIG1   0.1000
     29 H6        -13.8235     9.9793   -12.5360 H          1  LIG1   0.1000
     30 H7        -15.0949    10.5078   -11.4080 H          1  LIG1   0.0900
     31 H8        -13.2685    16.4951   -13.5743 H          1  LIG1   0.1400
     32 H9        -13.8257    18.3686   -15.0665 H          1  LIG1   0.1400
     33 H10       -15.5288    18.0894   -16.8177 H          1  LIG1   0.1300
     34 H11       -17.6455    15.2740   -17.1834 H          1  LIG1   0.4200
     35 H12       -18.0321    18.6121   -19.6013 H          1  LIG1   0.1100
     36 H13       -17.3660    17.8781   -21.0971 H          1  LIG1   0.1300
     37 H14       -20.0591    18.5532   -20.7775 H          1  LIG1   0.1100
     38 H15       -19.4852    17.2675   -21.8821 H          1  LIG1   0.1100
     39 H16       -21.3635    18.1881   -19.0176 H          1  LIG1   0.1300
     40 H17       -23.6239    17.2971   -19.7476 H          1  LIG1   0.1200
     41 H18       -22.8023    15.8230   -20.4916 H          1  LIG1   0.1100
     42 H19       -21.8664    15.1976   -18.2184 H          1  LIG1   0.1000
     43 H20       -22.6879    16.6718   -17.4745 H          1  LIG1   0.1100
     44 H21       -16.1336    14.0369   -15.5985 H          1  LIG1   0.1400
     45 H22       -12.9097    12.4748   -11.2759 H          1  LIG1   0.4400
@<TRIPOS>BOND
     1    1    2 1
     2    1   28 1
     3    1   29 1
     4    1   30 1
     5    2   27 1
     6    2    3 2
     7    3    4 1
     8    4    5 1
     9    4   26 2
    10    5   25 ar
    11    5    6 ar
    12    6    7 ar
    13    6   31 1
    14    7    8 ar
    15    7   32 1
    16    8    9 ar
    17    8   33 1
    18    9   10 1
    19    9   25 ar
    20   10   11 am
    21   10   34 1
    22   11   12 2
    23   11   13 1
    24   13   14 1
    25   13   22 1
    26   13   15 1
    27   15   16 1
    28   15   35 1
    29   15   36 1
    30   16   17 1
    31   16   37 1
    32   16   38 1
    33   17   18 1
    34   17   19 1
    35   17   22 1
    36   19   21 1
    37   19   20 1
    38   19   39 1
    39   20   21 1
    40   20   40 1
    41   20   41 1
    42   21   42 1
    43   21   43 1
    44   22   23 1
    45   22   24 1
    46   25   44 1
    47   26   27 1
    48   27   45 1
##########                 Name:     ZINC000345765694
##########          Protonation:                 none
##########               SMILES:   CCCNC1=CC=C(C#N)C=C1NC(=O)C[NH+]1[C@@H](C)CC[C@@H]1C
##########            Long Name:   NO_LONG_NAME
##########          FlexRecCode: 1
##########               Number:                  246
##########   Ligand Source File: /nfs/db/export/3D/DG/EDRO/DGEDRO.xac.db2.gz
##########                 Rank:                    1
##########               Setnum:                    7
##########             Matchnum:                    1
##########                Cloud:                    1
##########        Electrostatic:           -49.121300
##########                 Gist:             0.000000
##########        Van der Waals:           -32.778931
##########  Ligand Polar Desolv:            16.393988
########## Ligand Apolar Desolv:            -4.533749
##########      Internal Energy:             0.000000
##########      Receptor Energy:             0.000000
########## Receptor Desolvation:             0.000000
########## Receptor Hydrophobic:             0.000000
##########         Total Energy:           -70.039993
##########        Ligand Charge:             1.000000
##########            Arbitrary:    +999.9990
##########        Ligand Energy:             0.000000

@<TRIPOS>MOLECULE
 ZINC000345765694      none
   50    51     0     0     0



@<TRIPOS>ATOM
      1 C1        -16.1681    11.9505   -16.3758 C.3        1  LIG1  -0.1500
      2 C2        -16.1515    11.9091   -14.8465 C.3        1  LIG1  -0.1300
      3 C3        -15.5277    13.1985   -14.3083 C.3        1  LIG1   0.1100
      4 N1        -16.3177    14.3475   -14.7573 N.pl3      1  LIG1  -0.7400
      5 C4        -15.7003    15.5801   -14.9632 C.ar       1  LIG1   0.2400
      6 C5        -14.4702    15.8467   -14.3745 C.ar       1  LIG1  -0.1800
      7 C6        -13.8562    17.0638   -14.5749 C.ar       1  LIG1  -0.0100
      8 C7        -14.4696    18.0341   -15.3719 C.ar       1  LIG1  -0.0700
      9 C8        -13.8314    19.2989   -15.5808 C.1        1  LIG1   0.2500
     10 N2        -13.3253    20.3023   -15.7463 N.1        1  LIG1  -0.4100
     11 C9        -15.7071    17.7678   -15.9657 C.ar       1  LIG1  -0.0200
     12 C10       -16.3166    16.5436   -15.7661 C.ar       1  LIG1   0.0400
     13 N3        -17.5572    16.2728   -16.3596 N.am       1  LIG1  -0.6400
     14 C11       -18.4231    17.2773   -16.5995 C.2        1  LIG1   0.5100
     15 O1        -18.1288    18.4158   -16.3020 O.2        1  LIG1  -0.5100
     16 C12       -19.7569    16.9860   -17.2376 C.3        1  LIG1  -0.0400
     17 N4        -19.5456    16.3766   -18.5575 N.4        1  LIG1  -0.3700
     18 H1        -19.0284    15.5162   -18.4562 H          1  LIG1   0.4300
     19 C13       -20.8482    16.1011   -19.1909 C.3        1  LIG1   0.0300
     20 H2        -20.9469    15.0333   -19.3865 H          1  LIG1   0.1400
     21 C14       -21.9815    16.5692   -18.2758 C.3        1  LIG1  -0.1900
     22 C15       -20.8849    16.8838   -20.5204 C.3        1  LIG1  -0.1400
     23 C16       -19.3824    17.1044   -20.8377 C.3        1  LIG1  -0.1400
     24 C17       -18.7933    17.3106   -19.4221 C.3        1  LIG1   0.0200
     25 H3        -18.9445    18.3390   -19.0942 H          1  LIG1   0.1400
     26 C18       -17.3036    16.9621   -19.4092 C.3        1  LIG1  -0.1800
     27 H4        -16.6124    11.0320   -16.7594 H          1  LIG1   0.0600
     28 H5        -16.7557    12.8055   -16.7098 H          1  LIG1   0.0600
     29 H6        -15.1478    12.0433   -16.7479 H          1  LIG1   0.0600
     30 H7        -17.1719    11.8165   -14.4745 H          1  LIG1   0.0700
     31 H8        -15.5638    11.0542   -14.5124 H          1  LIG1   0.0700
     32 H9        -15.5160    13.1690   -13.2188 H          1  LIG1   0.0700
     33 H10       -14.5073    13.2913   -14.6804 H          1  LIG1   0.0700
     34 H11       -17.2705    14.2507   -14.9113 H          1  LIG1   0.3900
     35 H12       -13.9944    15.0981   -13.7580 H          1  LIG1   0.1400
     36 H13       -12.9005    17.2684   -14.1153 H          1  LIG1   0.1400
     37 H14       -16.1837    18.5156   -16.5822 H          1  LIG1   0.1500
     38 H15       -17.7925    15.3624   -16.5976 H          1  LIG1   0.4100
     39 H16       -20.3195    16.2987   -16.6060 H          1  LIG1   0.1700
     40 H17       -20.3157    17.9149   -17.3516 H          1  LIG1   0.1600
     41 H18       -22.9407    16.3623   -18.7505 H          1  LIG1   0.0800
     42 H19       -21.9243    16.0381   -17.3257 H          1  LIG1   0.1100
     43 H20       -21.8871    17.6406   -18.0995 H          1  LIG1   0.0900
     44 H21       -21.3612    16.2929   -21.3026 H          1  LIG1   0.1100
     45 H22       -21.3957    17.8381   -20.3916 H          1  LIG1   0.1000
     46 H23       -18.9517    16.2256   -21.3176 H          1  LIG1   0.1000
     47 H24       -19.2396    17.9929   -21.4527 H          1  LIG1   0.1200
     48 H25       -16.7621    17.6580   -20.0501 H          1  LIG1   0.1100
     49 H26       -16.9223    17.0344   -18.3907 H          1  LIG1   0.0800
     50 H27       -17.1649    15.9458   -19.7777 H          1  LIG1   0.0800
@<TRIPOS>BOND
     1    1    2 1
     2    1   27 1
     3    1   28 1
     4    1   29 1
     5    2    3 1
     6    2   30 1
     7    2   31 1
     8    3    4 1
     9    3   32 1
    10    3   33 1
    11    4    5 1
    12    4   34 1
    13    5   12 ar
    14    5    6 ar
    15    6    7 ar
    16    6   35 1
    17    7    8 ar
    18    7   36 1
    19    8    9 1
    20    8   11 ar
    21    9   10 3
    22   11   12 ar
    23   11   37 1
    24   12   13 1
    25   13   14 am
    26   13   38 1
    27   14   15 2
    28   14   16 1
    29   16   17 1
    30   16   39 1
    31   16   40 1
    32   17   18 1
    33   17   24 1
    34   17   19 1
    35   19   20 1
    36   19   21 1
    37   19   22 1
    38   21   41 1
    39   21   42 1
    40   21   43 1
    41   22   23 1
    42   22   44 1
    43   22   45 1
    44   23   24 1
    45   23   46 1
    46   23   47 1
    47   24   25 1
    48   24   26 1
    49   26   48 1
    50   26   49 1
    51   26   50 1
##########                 Name:     ZINC000155719879
##########          Protonation:                 none
##########               SMILES:   CC1=CC(C(=O)N[C@@H]2C[N@@H+](C(C)C)C[C@@H]2C)=CC([N+](=O)[O-])=C1
##########            Long Name:   NO_LONG_NAME
##########          FlexRecCode: 1
##########               Number:                 8314
##########   Ligand Source File: /nfs/db/export/3D/DE/BDMO/DEBDMO.xad.db2.gz
##########                 Rank:                    1
##########               Setnum:                    8
##########             Matchnum:                    1
##########                Cloud:                    1
##########        Electrostatic:           -45.706318
##########                 Gist:             0.000000
##########        Van der Waals:           -31.900143
##########  Ligand Polar Desolv:            14.867921
########## Ligand Apolar Desolv:            -5.489964
##########      Internal Energy:             0.000000
##########      Receptor Energy:             0.000000
########## Receptor Desolvation:             0.000000
########## Receptor Hydrophobic:             0.000000
##########         Total Energy:           -68.228500
##########        Ligand Charge:             1.000000
##########            Arbitrary:    +999.9990
##########        Ligand Energy:             0.000000

@<TRIPOS>MOLECULE
 ZINC000155719879      none
   46    47     0     0     0



@<TRIPOS>ATOM
      1 C1        -15.4869    11.4955   -15.8115 C.3        1  LIG1  -0.1200
      2 C2        -15.2026    12.8438   -15.2012 C.ar       1  LIG1  -0.0700
      3 C3        -15.7476    13.9810   -15.7603 C.ar       1  LIG1  -0.0100
      4 C4        -15.4832    15.2291   -15.1937 C.ar       1  LIG1  -0.1400
      5 C5        -16.0644    16.4520   -15.7873 C.2        1  LIG1   0.5700
      6 O1        -15.5002    17.5202   -15.6530 O.2        1  LIG1  -0.5000
      7 N1        -17.2201    16.3825   -16.4774 N.am       1  LIG1  -0.7300
      8 C6        -17.7960    17.5942   -17.0656 C.3        1  LIG1   0.1300
      9 H1        -17.5346    18.4708   -16.4729 H          1  LIG1   0.1500
     10 C7        -19.3338    17.4612   -17.1993 C.3        1  LIG1  -0.0200
     11 N2        -19.4995    16.6667   -18.4433 N.4        1  LIG1  -0.3900
     12 H2        -19.3480    15.6874   -18.2534 H          1  LIG1   0.4200
     13 C8        -20.8424    16.8732   -19.0013 C.3        1  LIG1   0.0300
     14 C9        -20.9956    16.0484   -20.2808 C.3        1  LIG1  -0.1800
     15 C10       -21.8927    16.4306   -17.9804 C.3        1  LIG1  -0.1800
     16 C11       -18.4728    17.1688   -19.3821 C.3        1  LIG1  -0.0100
     17 C12       -17.3311    17.7657   -18.5301 C.3        1  LIG1  -0.1100
     18 H3        -17.1954    18.8213   -18.7654 H          1  LIG1   0.1300
     19 C13       -16.0303    16.9973   -18.7721 C.3        1  LIG1  -0.1600
     20 C14       -14.6682    15.3174   -14.0643 C.ar       1  LIG1  -0.0400
     21 C15       -14.1293    14.1721   -13.5149 C.ar       1  LIG1  -0.0400
     22 N3        -13.2651    14.2638   -12.3168 N.pl3      1  LIG1   0.0200
     23 O2        -13.0304    15.3494   -11.8169 O.2        1  LIG1  -0.1600
     24 O3        -12.7888    13.2537   -11.8308 O.2        1  LIG1  -0.1400
     25 C16       -14.3999    12.9378   -14.0780 C.ar       1  LIG1  -0.0300
     26 H4        -16.1317    11.6192   -16.6816 H          1  LIG1   0.0900
     27 H5        -14.5498    11.0301   -16.1169 H          1  LIG1   0.0800
     28 H6        -15.9849    10.8622   -15.0773 H          1  LIG1   0.0800
     29 H7        -16.3773    13.9059   -16.6345 H          1  LIG1   0.1600
     30 H8        -17.6704    15.5300   -16.5846 H          1  LIG1   0.4100
     31 H9        -19.7497    16.9283   -16.3442 H          1  LIG1   0.1400
     32 H10       -19.7971    18.4422   -17.3049 H          1  LIG1   0.1500
     33 H11       -20.9819    17.9297   -19.2311 H          1  LIG1   0.1400
     34 H12       -21.9922    16.2017   -20.6948 H          1  LIG1   0.0800
     35 H13       -20.2475    16.3637   -21.0079 H          1  LIG1   0.0800
     36 H14       -20.8563    14.9921   -20.0509 H          1  LIG1   0.1100
     37 H15       -22.8892    16.5840   -18.3945 H          1  LIG1   0.0800
     38 H16       -21.7533    15.3743   -17.7505 H          1  LIG1   0.1100
     39 H17       -21.7836    17.0183   -17.0689 H          1  LIG1   0.0800
     40 H18       -18.0923    16.3480   -19.9900 H          1  LIG1   0.1400
     41 H19       -18.9005    17.9409   -20.0218 H          1  LIG1   0.1400
     42 H20       -15.7177    17.1292   -19.8080 H          1  LIG1   0.0800
     43 H21       -15.2546    17.3774   -18.1073 H          1  LIG1   0.0800
     44 H22       -16.1920    15.9379   -18.5735 H          1  LIG1   0.0600
     45 H23       -14.4595    16.2800   -13.6213 H          1  LIG1   0.1500
     46 H24       -13.9759    12.0443   -13.6440 H          1  LIG1   0.1700
@<TRIPOS>BOND
     1    1    2 1
     2    1   26 1
     3    1   27 1
     4    1   28 1
     5    2   25 ar
     6    2    3 ar
     7    3    4 ar
     8    3   29 1
     9    4    5 1
    10    4   20 ar
    11    5    6 2
    12    5    7 am
    13    7    8 1
    14    7   30 1
    15    8    9 1
    16    8   17 1
    17    8   10 1
    18   10   11 1
    19   10   31 1
    20   10   32 1
    21   11   12 1
    22   11   13 1
    23   11   16 1
    24   13   14 1
    25   13   15 1
    26   13   33 1
    27   14   34 1
    28   14   35 1
    29   14   36 1
    30   15   37 1
    31   15   38 1
    32   15   39 1
    33   16   17 1
    34   16   40 1
    35   16   41 1
    36   17   18 1
    37   17   19 1
    38   19   42 1
    39   19   43 1
    40   19   44 1
    41   20   21 ar
    42   20   45 1
    43   21   22 1
    44   21   25 ar
    45   22   23 2
    46   22   24 2
    47   25   46 1
##########                 Name:     ZINC000639821604
##########          Protonation:                 none
##########               SMILES:   CC[N@H+](CC(=O)NC1=CC=C(C)C=C1)[C@H]1CCN(CC(F)(F)F)C1
##########            Long Name:   NO_LONG_NAME
##########          FlexRecCode: 1
##########               Number:                12369
##########   Ligand Source File: /nfs/db/export/3D/EF/ADMO/EFADMO.xbgz.db2.gz
##########                 Rank:                    1
##########               Setnum:                   61
##########             Matchnum:                    1
##########                Cloud:                    1
##########        Electrostatic:           -44.990639
##########                 Gist:             0.000000
##########        Van der Waals:           -28.843819
##########  Ligand Polar Desolv:            13.612510
########## Ligand Apolar Desolv:            -3.770785
##########      Internal Energy:             0.000000
##########      Receptor Energy:             0.000000
########## Receptor Desolvation:             0.000000
########## Receptor Hydrophobic:             0.000000
##########         Total Energy:           -63.992733
##########        Ligand Charge:             1.000000
##########            Arbitrary:    +999.9990
##########        Ligand Energy:             0.000000

@<TRIPOS>MOLECULE
 ZINC000639821604      none
   49    50     0     0     0



@<TRIPOS>ATOM
      1 C1        -20.4850    17.9597   -19.0530 C.3        1  LIG1  -0.1900
      2 C2        -19.6854    16.6569   -19.1139 C.3        1  LIG1  -0.0300
      3 N1        -18.4479    16.8047   -18.3363 N.4        1  LIG1  -0.3600
      4 H1        -17.9206    15.9454   -18.3766 H          1  LIG1   0.4300
      5 C3        -18.7816    17.1095   -16.9385 C.3        1  LIG1  -0.0400
      6 C4        -17.6028    16.7832   -16.0581 C.2        1  LIG1   0.5000
      7 O1        -17.0845    17.6540   -15.3914 O.2        1  LIG1  -0.5100
      8 N2        -17.1245    15.5241   -16.0115 N.am       1  LIG1  -0.6400
      9 C5        -16.0300    15.2211   -15.1941 C.ar       1  LIG1   0.1100
     10 C6        -15.8998    13.9510   -14.6480 C.ar       1  LIG1  -0.1200
     11 C7        -14.8183    13.6551   -13.8415 C.ar       1  LIG1  -0.1000
     12 C8        -13.8659    14.6223   -13.5773 C.ar       1  LIG1  -0.0800
     13 C9        -12.6875    14.2962   -12.6965 C.3        1  LIG1  -0.1200
     14 C10       -13.9925    15.8880   -14.1199 C.ar       1  LIG1  -0.1000
     15 C11       -15.0686    16.1884   -14.9318 C.ar       1  LIG1  -0.1100
     16 C12       -17.6447    17.8990   -18.8976 C.3        1  LIG1  -0.0100
     17 H2        -18.0198    18.8643   -18.5578 H          1  LIG1   0.1500
     18 C13       -16.1486    17.7293   -18.5233 C.3        1  LIG1  -0.1500
     19 C14       -15.4488    18.4824   -19.6821 C.3        1  LIG1   0.0300
     20 N3        -16.2636    18.1771   -20.8773 N.3        1  LIG1  -0.5100
     21 C15       -16.2840    19.3158   -21.8053 C.3        1  LIG1   0.0000
     22 C16       -16.6840    18.8300   -23.1999 C.3        1  LIG1   0.4600
     23 F1        -17.9562    18.2505   -23.1447 F          1  LIG1  -0.1700
     24 F2        -16.7035    19.9144   -24.0836 F          1  LIG1  -0.1800
     25 F3        -15.7583    17.8810   -23.6465 F          1  LIG1  -0.1800
     26 C17       -17.6314    17.8308   -20.4393 C.3        1  LIG1   0.0300
     27 H3        -21.4032    17.8499   -19.6300 H          1  LIG1   0.0800
     28 H4        -20.7327    18.1858   -18.0157 H          1  LIG1   0.0800
     29 H5        -19.8890    18.7718   -19.4695 H          1  LIG1   0.1100
     30 H6        -20.2813    15.8448   -18.6974 H          1  LIG1   0.1500
     31 H7        -19.4377    16.4307   -20.1511 H          1  LIG1   0.1400
     32 H8        -19.0227    18.1683   -16.8450 H          1  LIG1   0.1600
     33 H9        -19.6404    16.5127   -16.6315 H          1  LIG1   0.1600
     34 H10       -17.5391    14.8278   -16.5447 H          1  LIG1   0.4200
     35 H11       -16.6436    13.1954   -14.8535 H          1  LIG1   0.1300
     36 H12       -14.7164    12.6675   -13.4166 H          1  LIG1   0.1300
     37 H13       -12.0493    15.1751   -12.6035 H          1  LIG1   0.0800
     38 H14       -13.0426    13.9988   -11.7099 H          1  LIG1   0.0700
     39 H15       -12.1179    13.4790   -13.1392 H          1  LIG1   0.0700
     40 H16       -13.2470    16.6411   -13.9116 H          1  LIG1   0.1300
     41 H17       -15.1669    17.1770   -15.3552 H          1  LIG1   0.1400
     42 H18       -15.9304    18.1991   -17.5642 H          1  LIG1   0.1100
     43 H19       -15.8655    16.6768   -18.5142 H          1  LIG1   0.1000
     44 H20       -15.4444    19.5552   -19.4896 H          1  LIG1   0.0800
     45 H21       -14.4308    18.1153   -19.8130 H          1  LIG1   0.1200
     46 H22       -17.0054    20.0551   -21.4573 H          1  LIG1   0.1300
     47 H23       -15.2929    19.7673   -21.8483 H          1  LIG1   0.0900
     48 H24       -17.8808    16.8213   -20.7657 H          1  LIG1   0.1100
     49 H25       -18.3449    18.5435   -20.8531 H          1  LIG1   0.1000
@<TRIPOS>BOND
     1    1    2 1
     2    1   27 1
     3    1   28 1
     4    1   29 1
     5    2    3 1
     6    2   30 1
     7    2   31 1
     8    3    4 1
     9    3    5 1
    10    3   16 1
    11    5    6 1
    12    5   32 1
    13    5   33 1
    14    6    7 2
    15    6    8 am
    16    8    9 1
    17    8   34 1
    18    9   15 ar
    19    9   10 ar
    20   10   11 ar
    21   10   35 1
    22   11   12 ar
    23   11   36 1
    24   12   13 1
    25   12   14 ar
    26   13   37 1
    27   13   38 1
    28   13   39 1
    29   14   15 ar
    30   14   40 1
    31   15   41 1
    32   16   17 1
    33   16   26 1
    34   16   18 1
    35   18   19 1
    36   18   42 1
    37   18   43 1
    38   19   20 1
    39   19   44 1
    40   19   45 1
    41   20   21 1
    42   20   26 1
    43   21   22 1
    44   21   46 1
    45   21   47 1
    46   22   23 1
    47   22   24 1
    48   22   25 1
    49   26   48 1
    50   26   49 1
##########                 Name:     ZINC000373387982
##########          Protonation:                 none
##########               SMILES:   OC1(C[NH2+]CC2=CC=C(Cl)C=C2N2C=NC=N2)CC2=CC=CC=C2C1
##########            Long Name:   NO_LONG_NAME
##########          FlexRecCode: 1
##########               Number:                 7573
##########   Ligand Source File: /nfs/db/export/3D/FF/ADRO/FFADRO.xavs.db2.gz
##########                 Rank:                    1
##########               Setnum:                   63
##########             Matchnum:                    1
##########                Cloud:                    1
##########        Electrostatic:           -42.785465
##########                 Gist:             0.000000
##########        Van der Waals:           -34.558479
##########  Ligand Polar Desolv:            14.356543
########## Ligand Apolar Desolv:            -6.644287
##########      Internal Energy:             0.000000
##########      Receptor Energy:             0.000000
########## Receptor Desolvation:             0.000000
########## Receptor Hydrophobic:             0.000000
##########         Total Energy:           -69.631691
##########        Ligand Charge:             1.000000
##########            Arbitrary:    +999.9990
##########        Ligand Energy:             0.000000

@<TRIPOS>MOLECULE
 ZINC000373387982      none
   45    48     0     0     0



@<TRIPOS>ATOM
      1 O1        -19.5324    17.9651   -17.5613 O.3        1  LIG1  -0.5500
      2 C1        -19.3592    17.2949   -18.8114 C.3        1  LIG1   0.1100
      3 C2        -17.9477    16.7153   -18.9240 C.3        1  LIG1   0.0200
      4 N1        -17.5457    16.1501   -17.6291 N.4        1  LIG1  -0.5000
      5 H1        -17.5565    16.8753   -16.9277 H          1  LIG1   0.4300
      6 H2        -18.1895    15.4189   -17.3667 H          1  LIG1   0.4200
      7 C3        -16.1905    15.5936   -17.7373 C.3        1  LIG1   0.0400
      8 C4        -15.7780    15.0138   -16.4089 C.ar       1  LIG1  -0.1600
      9 C5        -16.0431    13.6893   -16.1207 C.ar       1  LIG1  -0.0500
     10 C6        -15.6655    13.1562   -14.9020 C.ar       1  LIG1  -0.1100
     11 C7        -15.0206    13.9475   -13.9678 C.ar       1  LIG1   0.0200
     12 Cl1       -14.5481    13.2743   -12.4390 Cl         1  LIG1  -0.0200
     13 C8        -14.7518    15.2736   -14.2515 C.ar       1  LIG1  -0.1300
     14 C9        -15.1258    15.8092   -15.4761 C.ar       1  LIG1   0.1900
     15 N2        -14.8543    17.1536   -15.7669 N.pl3      1  LIG1  -0.3500
     16 C10       -14.2284    18.0420   -14.9706 C.2        1  LIG1   0.3000
     17 N3        -14.1719    19.1849   -15.6050 N.2        1  LIG1  -0.5200
     18 C11       -14.7471    19.0675   -16.8013 C.2        1  LIG1   0.2500
     19 N4        -15.1752    17.8409   -16.9489 N.2        1  LIG1  -0.3800
     20 C12       -20.4252    16.1941   -18.9961 C.3        1  LIG1  -0.1200
     21 C13       -21.5672    16.8671   -19.7272 C.ar       1  LIG1  -0.1100
     22 C14       -22.8871    16.4786   -19.8810 C.ar       1  LIG1  -0.1000
     23 C15       -23.7636    17.2653   -20.6028 C.ar       1  LIG1  -0.1100
     24 C16       -23.3226    18.4442   -21.1738 C.ar       1  LIG1  -0.1100
     25 C17       -22.0058    18.8335   -21.0214 C.ar       1  LIG1  -0.1000
     26 C18       -21.1258    18.0463   -20.2983 C.ar       1  LIG1  -0.1000
     27 C19       -19.6573    18.2459   -19.9899 C.3        1  LIG1  -0.1000
     28 H3        -19.3568    17.4096   -16.7896 H          1  LIG1   0.4100
     29 H4        -17.9361    15.9318   -19.6818 H          1  LIG1   0.1500
     30 H5        -17.2521    17.5051   -19.2074 H          1  LIG1   0.1400
     31 H6        -16.1788    14.8101   -18.4950 H          1  LIG1   0.1600
     32 H7        -15.4948    16.3835   -18.0206 H          1  LIG1   0.1400
     33 H8        -16.5464    13.0695   -16.8480 H          1  LIG1   0.1600
     34 H9        -15.8746    12.1204   -14.6788 H          1  LIG1   0.1600
     35 H10       -14.2485    15.8913   -13.5223 H          1  LIG1   0.1600
     36 H11       -13.8411    17.8451   -13.9818 H          1  LIG1   0.2300
     37 H12       -14.8410    19.8568   -17.5323 H          1  LIG1   0.2300
     38 H13       -20.0240    15.3754   -19.5934 H          1  LIG1   0.0900
     39 H14       -20.7613    15.8265   -18.0265 H          1  LIG1   0.0900
     40 H15       -23.2325    15.5575   -19.4355 H          1  LIG1   0.1200
     41 H16       -24.7926    16.9593   -20.7213 H          1  LIG1   0.1300
     42 H17       -24.0064    19.0602   -21.7387 H          1  LIG1   0.1300
     43 H18       -21.6618    19.7548   -21.4678 H          1  LIG1   0.1300
     44 H19       -19.4691    19.2794   -19.6989 H          1  LIG1   0.1000
     45 H20       -19.0497    17.9790   -20.8544 H          1  LIG1   0.1000
@<TRIPOS>BOND
     1    1    2 1
     2    1   28 1
     3    2   27 1
     4    2    3 1
     5    2   20 1
     6    3    4 1
     7    3   29 1
     8    3   30 1
     9    4    5 1
    10    4    6 1
    11    4    7 1
    12    7    8 1
    13    7   31 1
    14    7   32 1
    15    8   14 ar
    16    8    9 ar
    17    9   10 ar
    18    9   33 1
    19   10   11 ar
    20   10   34 1
    21   11   12 1
    22   11   13 ar
    23   13   14 ar
    24   13   35 1
    25   14   15 1
    26   15   19 1
    27   15   16 1
    28   16   17 2
    29   16   36 1
    30   17   18 1
    31   18   19 2
    32   18   37 1
    33   20   21 1
    34   20   38 1
    35   20   39 1
    36   21   26 ar
    37   21   22 ar
    38   22   23 ar
    39   22   40 1
    40   23   24 ar
    41   23   41 1
    42   24   25 ar
    43   24   42 1
    44   25   26 ar
    45   25   43 1
    46   26   27 1
    47   27   44 1
    48   27   45 1
##########                 Name:     ZINC000247398558
##########          Protonation:                 none
##########               SMILES:   CC(C)[N@H+]1C[C@H](C)[C@H](NC(=O)C2=C3NC=CC3=CC=C2)C1
##########            Long Name:   NO_LONG_NAME
##########          FlexRecCode: 1
##########               Number:                 8234
##########   Ligand Source File: /nfs/db/export/3D/CF/ADMO/CFADMO.xail.db2.gz
##########                 Rank:                    1
##########               Setnum:                   15
##########             Matchnum:                    1
##########                Cloud:                    1
##########        Electrostatic:           -48.917183
##########                 Gist:             0.000000
##########        Van der Waals:           -29.935627
##########  Ligand Polar Desolv:            16.422428
########## Ligand Apolar Desolv:            -4.880604
##########      Internal Energy:             0.000000
##########      Receptor Energy:             0.000000
########## Receptor Desolvation:             0.000000
########## Receptor Hydrophobic:             0.000000
##########         Total Energy:           -67.310989
##########        Ligand Charge:             1.000000
##########            Arbitrary:    +999.9990
##########        Ligand Energy:             0.000000

@<TRIPOS>MOLECULE
 ZINC000247398558      none
   45    47     0     0     0



@<TRIPOS>ATOM
      1 C1        -21.1626    15.6576   -19.7921 C.3        1  LIG1  -0.1800
      2 C2        -20.7371    16.7621   -18.8224 C.3        1  LIG1   0.0300
      3 C3        -21.7064    16.8032   -17.6393 C.3        1  LIG1  -0.1800
      4 N1        -19.3792    16.4880   -18.3337 N.4        1  LIG1  -0.3900
      5 H1        -19.3537    15.6002   -17.8549 H          1  LIG1   0.4200
      6 C4        -18.4219    16.4872   -19.4610 C.3        1  LIG1  -0.0100
      7 C5        -17.1053    17.0893   -18.9362 C.3        1  LIG1  -0.1100
      8 H2        -16.8444    17.9819   -19.5046 H          1  LIG1   0.1300
      9 C6        -15.9784    16.0579   -19.0219 C.3        1  LIG1  -0.1600
     10 C7        -17.3887    17.4561   -17.4613 C.3        1  LIG1   0.1300
     11 H3        -16.9226    18.4072   -17.2040 H          1  LIG1   0.1400
     12 N2        -16.9251    16.3943   -16.5648 N.am       1  LIG1  -0.7400
     13 C8        -15.6896    16.4559   -16.0297 C.2        1  LIG1   0.5700
     14 O1        -14.9597    17.3926   -16.2911 O.2        1  LIG1  -0.5300
     15 C9        -15.2227    15.3868   -15.1270 C.ar       1  LIG1  -0.1700
     16 C10       -15.6939    14.0730   -15.2843 C.ar       1  LIG1   0.1500
     17 N3        -16.5695    13.4838   -16.1599 N.pl3      1  LIG1  -0.5800
     18 C11       -16.6845    12.1488   -15.8787 C.2        1  LIG1   0.0500
     19 C12       -15.9041    11.8338   -14.8333 C.2        1  LIG1  -0.2000
     20 C13       -15.2361    13.0687   -14.4128 C.ar       1  LIG1  -0.1200
     21 C14       -14.3231    13.3812   -13.4050 C.ar       1  LIG1  -0.0200
     22 C15       -13.8690    14.6758   -13.2632 C.ar       1  LIG1  -0.1600
     23 C16       -14.3069    15.6727   -14.1163 C.ar       1  LIG1  -0.0600
     24 C17       -18.9337    17.5737   -17.4231 C.3        1  LIG1  -0.0200
     25 H4        -20.4721    15.6284   -20.6350 H          1  LIG1   0.1100
     26 H5        -21.1487    14.6970   -19.2773 H          1  LIG1   0.0800
     27 H6        -22.1702    15.8609   -20.1548 H          1  LIG1   0.0800
     28 H7        -20.7512    17.7228   -19.3371 H          1  LIG1   0.1400
     29 H8        -21.4032    17.5899   -16.9484 H          1  LIG1   0.0800
     30 H9        -22.7139    17.0066   -18.0019 H          1  LIG1   0.0800
     31 H10       -21.6924    15.8425   -17.1245 H          1  LIG1   0.1100
     32 H11       -18.2527    15.4664   -19.8038 H          1  LIG1   0.1400
     33 H12       -18.8093    17.0965   -20.2776 H          1  LIG1   0.1400
     34 H13       -15.0540    16.4978   -18.6474 H          1  LIG1   0.0800
     35 H14       -16.2364    15.1869   -18.4195 H          1  LIG1   0.0800
     36 H15       -15.8419    15.7544   -20.0598 H          1  LIG1   0.0600
     37 H16       -17.5072    15.6470   -16.3562 H          1  LIG1   0.4100
     38 H17       -17.0380    13.9447   -16.8733 H          1  LIG1   0.4300
     39 H18       -17.3104    11.4530   -16.4178 H          1  LIG1   0.1800
     40 H19       -15.7903    10.8570   -14.3870 H          1  LIG1   0.1600
     41 H20       -13.9720    12.6096   -12.7358 H          1  LIG1   0.1300
     42 H21       -13.1626    14.9125   -12.4814 H          1  LIG1   0.1300
     43 H22       -13.9424    16.6818   -13.9932 H          1  LIG1   0.1200
     44 H23       -19.2550    18.5453   -17.7986 H          1  LIG1   0.1500
     45 H24       -19.3073    17.4080   -16.4126 H          1  LIG1   0.1400
@<TRIPOS>BOND
     1    1    2 1
     2    1   25 1
     3    1   26 1
     4    1   27 1
     5    2    3 1
     6    2    4 1
     7    2   28 1
     8    3   29 1
     9    3   30 1
    10    3   31 1
    11    4    5 1
    12    4   24 1
    13    4    6 1
    14    6    7 1
    15    6   32 1
    16    6   33 1
    17    7    8 1
    18    7    9 1
    19    7   10 1
    20    9   34 1
    21    9   35 1
    22    9   36 1
    23   10   11 1
    24   10   12 1
    25   10   24 1
    26   12   13 am
    27   12   37 1
    28   13   14 2
    29   13   15 1
    30   15   23 ar
    31   15   16 ar
    32   16   20 ar
    33   16   17 1
    34   17   18 1
    35   17   38 1
    36   18   19 2
    37   18   39 1
    38   19   20 1
    39   19   40 1
    40   20   21 ar
    41   21   22 ar
    42   21   41 1
    43   22   23 ar
    44   22   42 1
    45   23   43 1
    46   24   44 1
    47   24   45 1
##########                 Name:     ZINC000331412478
##########          Protonation:                 none
##########               SMILES:   C[C@]1(O)CC[N@H+](CC(=O)NC[C@@H]2CC3=CC=CC=C3O2)C1
##########            Long Name:   NO_LONG_NAME
##########          FlexRecCode: 1
##########               Number:                 5943
##########   Ligand Source File: /nfs/db/export/3D/CC/ADRO/CCADRO.xbjr.db2.gz
##########                 Rank:                    1
##########               Setnum:                  537
##########             Matchnum:                    1
##########                Cloud:                    1
##########        Electrostatic:           -45.355827
##########                 Gist:             0.000000
##########        Van der Waals:           -30.928946
##########  Ligand Polar Desolv:            11.174272
########## Ligand Apolar Desolv:            -2.156104
##########      Internal Energy:             0.000000
##########      Receptor Energy:             0.000000
########## Receptor Desolvation:             0.000000
########## Receptor Hydrophobic:             0.000000
##########         Total Energy:           -67.266609
##########        Ligand Charge:             1.000000
##########            Arbitrary:    +999.9990
##########        Ligand Energy:             0.000000

@<TRIPOS>MOLECULE
 ZINC000331412478      none
   44    46     0     0     0



@<TRIPOS>ATOM
      1 C1        -22.4389    17.4718   -20.3150 C.3        1  LIG1  -0.1800
      2 C2        -21.5859    16.5437   -19.4477 C.3        1  LIG1   0.1200
      3 O1        -21.8808    15.1776   -19.7453 O.3        1  LIG1  -0.5500
      4 C3        -21.8301    16.8334   -17.9524 C.3        1  LIG1  -0.1800
      5 C4        -20.4567    17.2697   -17.3987 C.3        1  LIG1   0.0000
      6 N1        -19.4688    16.6665   -18.3300 N.4        1  LIG1  -0.3800
      7 H1        -19.3363    15.6888   -18.1190 H          1  LIG1   0.4400
      8 C5        -18.1898    17.3855   -18.2587 C.3        1  LIG1  -0.0300
      9 C6        -17.6487    17.3098   -16.8543 C.2        1  LIG1   0.5000
     10 O2        -17.9418    18.1640   -16.0446 O.2        1  LIG1  -0.5300
     11 N2        -16.8389    16.2932   -16.4980 N.am       1  LIG1  -0.7000
     12 C7        -16.3126    16.2197   -15.1328 C.3        1  LIG1   0.1200
     13 C8        -15.4277    14.9794   -14.9933 C.3        1  LIG1   0.0700
     14 H2        -14.5918    15.0228   -15.6914 H          1  LIG1   0.1000
     15 C9        -16.2544    13.6894   -15.2074 C.3        1  LIG1  -0.1000
     16 C10       -15.6185    12.7405   -14.2100 C.ar       1  LIG1  -0.1700
     17 C11       -15.6793    11.3723   -14.0673 C.ar       1  LIG1  -0.0700
     18 C12       -14.9775    10.7513   -13.0488 C.ar       1  LIG1  -0.1400
     19 C13       -14.2173    11.5094   -12.1779 C.ar       1  LIG1  -0.0800
     20 C14       -14.1578    12.8808   -12.3170 C.ar       1  LIG1  -0.1300
     21 C15       -14.8637    13.5137   -13.3368 C.ar       1  LIG1   0.1000
     22 O3        -14.9562    14.8396   -13.6422 O.3        1  LIG1  -0.3000
     23 C16       -20.0854    16.8295   -19.6718 C.3        1  LIG1   0.0100
     24 H3        -23.4944    17.2584   -20.1462 H          1  LIG1   0.0800
     25 H4        -22.2310    18.5086   -20.0510 H          1  LIG1   0.0800
     26 H5        -22.1989    17.3093   -21.3658 H          1  LIG1   0.0800
     27 H6        -21.3695    14.5425   -19.2254 H          1  LIG1   0.4000
     28 H7        -22.5578    17.6367   -17.8363 H          1  LIG1   0.1200
     29 H8        -22.1748    15.9330   -17.4437 H          1  LIG1   0.1100
     30 H9        -20.3717    18.3564   -17.4060 H          1  LIG1   0.1300
     31 H10       -20.3133    16.8831   -16.3897 H          1  LIG1   0.1500
     32 H11       -17.4781    16.9302   -18.9473 H          1  LIG1   0.1600
     33 H12       -18.3439    18.4292   -18.5330 H          1  LIG1   0.1600
     34 H13       -16.6043    15.6101   -17.1456 H          1  LIG1   0.4100
     35 H14       -15.7232    17.1121   -14.9220 H          1  LIG1   0.0900
     36 H15       -17.1410    16.1563   -14.4271 H          1  LIG1   0.1000
     37 H16       -17.3052    13.8564   -14.9708 H          1  LIG1   0.1000
     38 H17       -16.1400    13.3180   -16.2258 H          1  LIG1   0.1000
     39 H18       -16.2748    10.7840   -14.7497 H          1  LIG1   0.1300
     40 H19       -15.0239     9.6784   -12.9346 H          1  LIG1   0.1300
     41 H20       -13.6673    11.0256   -11.3843 H          1  LIG1   0.1400
     42 H21       -13.5615    13.4657   -11.6322 H          1  LIG1   0.1300
     43 H22       -19.6624    16.1113   -20.3742 H          1  LIG1   0.1500
     44 H23       -19.9422    17.8472   -20.0348 H          1  LIG1   0.1500
@<TRIPOS>BOND
     1    1    2 1
     2    1   24 1
     3    1   25 1
     4    1   26 1
     5    2   23 1
     6    2    3 1
     7    2    4 1
     8    3   27 1
     9    4    5 1
    10    4   28 1
    11    4   29 1
    12    5    6 1
    13    5   30 1
    14    5   31 1
    15    6    7 1
    16    6    8 1
    17    6   23 1
    18    8    9 1
    19    8   32 1
    20    8   33 1
    21    9   10 2
    22    9   11 am
    23   11   12 1
    24   11   34 1
    25   12   13 1
    26   12   35 1
    27   12   36 1
    28   13   14 1
    29   13   22 1
    30   13   15 1
    31   15   16 1
    32   15   37 1
    33   15   38 1
    34   16   21 ar
    35   16   17 ar
    36   17   18 ar
    37   17   39 1
    38   18   19 ar
    39   18   40 1
    40   19   20 ar
    41   19   41 1
    42   20   21 ar
    43   20   42 1
    44   21   22 1
    45   23   43 1
    46   23   44 1
##########                 Name:     ZINC000431415543
##########          Protonation:                 none
##########               SMILES:   CN1C2=CC(F)=CC=C2[NH+]=C1NCCC1=NC(C2=CC=CC=C2)=NN1
##########            Long Name:   NO_LONG_NAME
##########          FlexRecCode: 1
##########               Number:                 2058
##########   Ligand Source File: /nfs/db/export/3D/EF/ADMO/EFADMO.xabx.db2.gz
##########                 Rank:                    1
##########               Setnum:                   74
##########             Matchnum:                    1
##########                Cloud:                    1
##########        Electrostatic:           -41.173233
##########                 Gist:             0.000000
##########        Van der Waals:           -30.123096
##########  Ligand Polar Desolv:            13.233410
########## Ligand Apolar Desolv:            -5.896349
##########      Internal Energy:             0.000000
##########      Receptor Energy:             0.000000
########## Receptor Desolvation:             0.000000
########## Receptor Hydrophobic:             0.000000
##########         Total Energy:           -63.959267
##########        Ligand Charge:             1.000000
##########            Arbitrary:    +999.9990
##########        Ligand Energy:             0.000000

@<TRIPOS>MOLECULE
 ZINC000431415543      none
   43    46     0     0     0



@<TRIPOS>ATOM
      1 C1        -15.0521    18.6483   -16.5674 C.3        1  LIG1   0.0700
      2 N1        -15.5932    17.2918   -16.4513 N.pl3      1  LIG1  -0.4700
      3 C2        -15.1433    16.2982   -15.5973 C.ar       1  LIG1   0.1200
      4 C3        -14.1335    16.2301   -14.6498 C.ar       1  LIG1  -0.1300
      5 C4        -13.9319    15.0601   -13.9430 C.ar       1  LIG1   0.1600
      6 F1        -12.9480    14.9944   -13.0195 F          1  LIG1  -0.1100
      7 C5        -14.7350    13.9516   -14.1761 C.ar       1  LIG1  -0.1200
      8 C6        -15.7419    14.0036   -15.1143 C.ar       1  LIG1  -0.0400
      9 C7        -15.9580    15.1793   -15.8363 C.ar       1  LIG1   0.0500
     10 N2        -16.8476    15.5314   -16.8028 N.pl3      1  LIG1  -0.5300
     11 H1        -17.5347    14.9523   -17.1680 H          1  LIG1   0.4600
     12 C8        -16.6388    16.7735   -17.1607 C.cat      1  LIG1   0.6500
     13 N3        -17.3613    17.4541   -18.1187 N.pl3      1  LIG1  -0.6800
     14 C9        -18.4653    16.7880   -18.8142 C.3        1  LIG1   0.1100
     15 C10       -19.0943    17.7566   -19.8176 C.3        1  LIG1  -0.0500
     16 C11       -18.0548    18.1860   -20.8208 C.2        1  LIG1   0.2700
     17 N4        -17.8461    19.4091   -21.2309 N.2        1  LIG1  -0.5200
     18 C12       -16.8465    19.4239   -22.1226 C.2        1  LIG1   0.2800
     19 C13       -16.3196    20.6283   -22.8116 C.ar       1  LIG1  -0.0300
     20 C14       -15.2753    20.5097   -23.7262 C.ar       1  LIG1  -0.0800
     21 C15       -14.7895    21.6330   -24.3644 C.ar       1  LIG1  -0.1200
     22 C16       -15.3371    22.8746   -24.0970 C.ar       1  LIG1  -0.1000
     23 C17       -16.3739    22.9980   -23.1898 C.ar       1  LIG1  -0.1200
     24 C18       -16.8713    21.8808   -22.5502 C.ar       1  LIG1  -0.0800
     25 N5        -16.4089    18.1946   -22.2860 N.2        1  LIG1  -0.2900
     26 N6        -17.1789    17.3767   -21.4433 N.pl3      1  LIG1  -0.4700
     27 H2        -14.2204    18.7684   -15.8732 H          1  LIG1   0.1000
     28 H3        -14.7017    18.8138   -17.5863 H          1  LIG1   0.1200
     29 H4        -15.8316    19.3721   -16.3292 H          1  LIG1   0.1000
     30 H5        -13.5058    17.0894   -14.4649 H          1  LIG1   0.1600
     31 H6        -14.5687    13.0422   -13.6179 H          1  LIG1   0.1700
     32 H7        -16.3625    13.1376   -15.2913 H          1  LIG1   0.1600
     33 H8        -17.1382    18.3738   -18.3319 H          1  LIG1   0.4400
     34 H9        -18.0866    15.9130   -19.3424 H          1  LIG1   0.1100
     35 H10       -19.2170    16.4774   -18.0887 H          1  LIG1   0.0900
     36 H11       -19.9157    17.2608   -20.3352 H          1  LIG1   0.1100
     37 H12       -19.4731    18.6317   -19.2897 H          1  LIG1   0.1200
     38 H13       -14.8466    19.5408   -23.9351 H          1  LIG1   0.1300
     39 H14       -13.9800    21.5422   -25.0736 H          1  LIG1   0.1300
     40 H15       -14.9534    23.7511   -24.5981 H          1  LIG1   0.1300
     41 H16       -16.7976    23.9701   -22.9845 H          1  LIG1   0.1300
     42 H17       -17.6812    21.9781   -21.8423 H          1  LIG1   0.1300
     43 H18       -17.0989    16.4160   -21.3356 H          1  LIG1   0.4500
@<TRIPOS>BOND
     1    1    2 1
     2    1   27 1
     3    1   28 1
     4    1   29 1
     5    2   12 1
     6    2    3 1
     7    3    9 ar
     8    3    4 ar
     9    4    5 ar
    10    4   30 1
    11    5    6 1
    12    5    7 ar
    13    7    8 ar
    14    7   31 1
    15    8    9 ar
    16    8   32 1
    17    9   10 1
    18   10   11 1
    19   10   12 1
    20   12   13 1
    21   13   14 1
    22   13   33 1
    23   14   15 1
    24   14   34 1
    25   14   35 1
    26   15   16 1
    27   15   36 1
    28   15   37 1
    29   16   26 1
    30   16   17 2
    31   17   18 1
    32   18   19 1
    33   18   25 2
    34   19   24 ar
    35   19   20 ar
    36   20   21 ar
    37   20   38 1
    38   21   22 ar
    39   21   39 1
    40   22   23 ar
    41   22   40 1
    42   23   24 ar
    43   23   41 1
    44   24   42 1
    45   25   26 1
    46   26   43 1
##########                 Name:     ZINC000543431292
##########          Protonation:                 none
##########               SMILES:   CCC(C)(C)[NH2+][C@H](C)C(=O)NCc1cc2ccccc2o1
##########            Long Name:   NO_LONG_NAME
##########          FlexRecCode: 1
##########               Number:                10936
##########   Ligand Source File: /nfs/db/export/3D/CG/ADRO/CGADRO.xbtv.db2.gz
##########                 Rank:                    1
##########               Setnum:                  207
##########             Matchnum:                    1
##########                Cloud:                    1
##########        Electrostatic:           -44.994335
##########                 Gist:             0.000000
##########        Van der Waals:           -29.047689
##########  Ligand Polar Desolv:            14.404269
########## Ligand Apolar Desolv:            -4.233043
##########      Internal Energy:             0.000000
##########      Receptor Energy:             0.000000
########## Receptor Desolvation:             0.000000
########## Receptor Hydrophobic:             0.000000
##########         Total Energy:           -63.870796
##########        Ligand Charge:             1.000000
##########            Arbitrary:    +999.9990
##########        Ligand Energy:             0.000000

@<TRIPOS>MOLECULE
 ZINC000543431292      none
   46    47     0     0     0



@<TRIPOS>ATOM
      1 C1        -22.1874    15.8603   -17.8858 C.3        1  LIG1  -0.1600
      2 C2        -21.3208    16.9134   -17.1924 C.3        1  LIG1  -0.1400
      3 C3        -20.2533    17.4170   -18.1661 C.3        1  LIG1   0.0500
      4 C4        -20.9309    18.0386   -19.3889 C.3        1  LIG1  -0.1800
      5 C5        -19.3867    18.4702   -17.4727 C.3        1  LIG1  -0.1900
      6 N1        -19.4099    16.2924   -18.5925 N.4        1  LIG1  -0.4900
      7 H1        -19.2303    15.6889   -17.8040 H          1  LIG1   0.4400
      8 H2        -19.8844    15.7707   -19.3140 H          1  LIG1   0.4300
      9 C6        -18.1371    16.8059   -19.1161 C.3        1  LIG1   0.0000
     10 H3        -18.3228    17.7023   -19.7077 H          1  LIG1   0.1600
     11 C7        -17.4809    15.7405   -19.9966 C.3        1  LIG1  -0.1800
     12 C8        -17.2209    17.1427   -17.9680 C.2        1  LIG1   0.5100
     13 O1        -16.8163    18.2774   -17.8276 O.2        1  LIG1  -0.5100
     14 N2        -16.8513    16.1829   -17.0970 N.am       1  LIG1  -0.7100
     15 C9        -15.9606    16.5103   -15.9808 C.3        1  LIG1   0.2000
     16 C10       -15.7039    15.2709   -15.1628 C.2        1  LIG1  -0.0100
     17 C11       -14.9355    15.2212   -14.0662 C.2        1  LIG1  -0.1600
     18 C12       -14.9728    13.8288   -13.6033 C.ar       1  LIG1  -0.1400
     19 C13       -14.3944    13.1404   -12.5382 C.ar       1  LIG1  -0.0700
     20 C14       -14.6397    11.7934   -12.3851 C.ar       1  LIG1  -0.1300
     21 C15       -15.4566    11.1246   -13.2850 C.ar       1  LIG1  -0.0800
     22 C16       -16.0343    11.7939   -14.3428 C.ar       1  LIG1  -0.1100
     23 C17       -15.8007    13.1521   -14.5148 C.ar       1  LIG1   0.0600
     24 O2        -16.2172    14.0562   -15.4243 O.3        1  LIG1  -0.1900
     25 H4        -22.9479    15.5015   -17.1924 H          1  LIG1   0.0700
     26 H5        -22.6700    16.3031   -18.7570 H          1  LIG1   0.0700
     27 H6        -21.5616    15.0258   -18.2023 H          1  LIG1   0.0800
     28 H7        -21.9468    17.7480   -16.8761 H          1  LIG1   0.0900
     29 H8        -20.8381    16.4707   -16.3213 H          1  LIG1   0.0900
     30 H9        -20.1703    18.3974   -20.0825 H          1  LIG1   0.1100
     31 H10       -21.5483    17.2883   -19.8829 H          1  LIG1   0.0800
     32 H11       -21.5567    18.8731   -19.0725 H          1  LIG1   0.0900
     33 H12       -18.6263    18.8289   -18.1664 H          1  LIG1   0.1000
     34 H13       -20.0126    19.3047   -17.1564 H          1  LIG1   0.0800
     35 H14       -18.9040    18.0273   -16.6016 H          1  LIG1   0.1100
     36 H15       -16.5365    16.1216   -20.3851 H          1  LIG1   0.1000
     37 H16       -17.2951    14.8442   -19.4048 H          1  LIG1   0.1100
     38 H17       -18.1437    15.4967   -20.8269 H          1  LIG1   0.0900
     39 H18       -17.1748    15.2754   -17.2092 H          1  LIG1   0.4100
     40 H19       -15.0161    16.8914   -16.3692 H          1  LIG1   0.1100
     41 H20       -16.4282    17.2693   -15.3535 H          1  LIG1   0.1000
     42 H21       -14.3968    16.0408   -13.6140 H          1  LIG1   0.1600
     43 H22       -13.7576    13.6597   -11.8373 H          1  LIG1   0.1300
     44 H23       -14.1937    11.2558   -11.5614 H          1  LIG1   0.1400
     45 H24       -15.6418    10.0685   -13.1556 H          1  LIG1   0.1400
     46 H25       -16.6680    11.2623   -15.0372 H          1  LIG1   0.1400
@<TRIPOS>BOND
     1    1    2 1
     2    1   25 1
     3    1   26 1
     4    1   27 1
     5    2    3 1
     6    2   28 1
     7    2   29 1
     8    3    4 1
     9    3    5 1
    10    3    6 1
    11    4   30 1
    12    4   31 1
    13    4   32 1
    14    5   33 1
    15    5   34 1
    16    5   35 1
    17    6    7 1
    18    6    8 1
    19    6    9 1
    20    9   10 1
    21    9   11 1
    22    9   12 1
    23   11   36 1
    24   11   37 1
    25   11   38 1
    26   12   13 2
    27   12   14 am
    28   14   15 1
    29   14   39 1
    30   15   16 1
    31   15   40 1
    32   15   41 1
    33   16   24 1
    34   16   17 2
    35   17   18 1
    36   17   42 1
    37   18   23 ar
    38   18   19 ar
    39   19   20 ar
    40   19   43 1
    41   20   21 ar
    42   20   44 1
    43   21   22 ar
    44   21   45 1
    45   22   23 ar
    46   22   46 1
    47   23   24 1
##########                 Name:     ZINC000594232893
##########          Protonation:                 none
##########               SMILES:   CC(C)[N@H+]1C[C@H](C)[C@H](NC(=O)N2CC3=CC=C(C#N)C=C3C2)C1
##########            Long Name:   NO_LONG_NAME
##########          FlexRecCode: 1
##########               Number:                 7376
##########   Ligand Source File: /nfs/db/export/3D/DE/EDMO/DEEDMO.xar.db2.gz
##########                 Rank:                    1
##########               Setnum:                    3
##########             Matchnum:                    1
##########                Cloud:                    1
##########        Electrostatic:           -44.006721
##########                 Gist:             0.000000
##########        Van der Waals:           -33.682495
##########  Ligand Polar Desolv:            19.693655
########## Ligand Apolar Desolv:            -5.701709
##########      Internal Energy:             0.000000
##########      Receptor Energy:             0.000000
########## Receptor Desolvation:             0.000000
########## Receptor Hydrophobic:             0.000000
##########         Total Energy:           -63.697273
##########        Ligand Charge:             1.000000
##########            Arbitrary:    +999.9990
##########        Ligand Energy:             0.000000

@<TRIPOS>MOLECULE
 ZINC000594232893      none
   48    50     0     0     0



@<TRIPOS>ATOM
      1 C1        -21.3969    15.5841   -20.3685 C.3        1  LIG1  -0.1800
      2 C2        -21.2273    16.5764   -19.2164 C.3        1  LIG1   0.0300
      3 C3        -22.2589    16.2748   -18.1275 C.3        1  LIG1  -0.1800
      4 N1        -19.8746    16.4513   -18.6574 N.4        1  LIG1  -0.3900
      5 H1        -19.7256    15.5153   -18.3117 H          1  LIG1   0.4200
      6 C4        -18.8649    16.7813   -19.6868 C.3        1  LIG1  -0.0100
      7 C5        -17.7058    17.4975   -18.9692 C.3        1  LIG1  -0.1100
      8 H2        -17.5685    18.4985   -19.3782 H          1  LIG1   0.1300
      9 C6        -16.4151    16.6874   -19.1060 C.3        1  LIG1  -0.1500
     10 C7        -18.1368    17.5781   -17.4868 C.3        1  LIG1   0.1500
     11 H3        -17.8578    18.5396   -17.0557 H          1  LIG1   0.1400
     12 N2        -17.5524    16.4775   -16.7164 N.am       1  LIG1  -0.7500
     13 C8        -16.3806    16.6524   -16.0739 C.2        1  LIG1   0.7300
     14 O1        -15.8085    17.7235   -16.1337 O.2        1  LIG1  -0.5600
     15 N3        -15.8431    15.6398   -15.3652 N.am       1  LIG1  -0.6300
     16 C9        -14.5869    15.6733   -14.6100 C.3        1  LIG1   0.1400
     17 C10       -14.3931    14.3162   -13.9809 C.ar       1  LIG1  -0.0900
     18 C11       -13.3787    13.8236   -13.1755 C.ar       1  LIG1  -0.0900
     19 C12       -13.4244    12.5247   -12.7152 C.ar       1  LIG1  -0.0600
     20 C13       -14.4984    11.7029   -13.0622 C.ar       1  LIG1  -0.0100
     21 C14       -14.5541    10.3528   -12.5882 C.1        1  LIG1   0.2400
     22 N4        -14.5985     9.2818   -12.2121 N.1        1  LIG1  -0.3900
     23 C15       -15.5175    12.2045   -13.8732 C.ar       1  LIG1  -0.0400
     24 C16       -15.4594    13.5075   -14.3282 C.ar       1  LIG1  -0.1000
     25 C17       -16.4063    14.2966   -15.1970 C.3        1  LIG1   0.1700
     26 C18       -19.6786    17.4381   -17.5648 C.3        1  LIG1  -0.0200
     27 H4        -20.6620    15.7990   -21.1443 H          1  LIG1   0.0800
     28 H5        -21.2490    14.5695   -19.9989 H          1  LIG1   0.1100
     29 H6        -22.4006    15.6770   -20.7833 H          1  LIG1   0.0800
     30 H7        -21.3753    17.5911   -19.5859 H          1  LIG1   0.1400
     31 H8        -22.1380    16.9817   -17.3066 H          1  LIG1   0.0800
     32 H9        -23.2626    16.3677   -18.5422 H          1  LIG1   0.0800
     33 H10       -22.1109    15.2601   -17.7579 H          1  LIG1   0.1100
     34 H11       -18.5023    15.8677   -20.1576 H          1  LIG1   0.1300
     35 H12       -19.3014    17.4408   -20.4368 H          1  LIG1   0.1400
     36 H13       -15.6046    17.2059   -18.5939 H          1  LIG1   0.0800
     37 H14       -16.5553    15.7027   -18.6603 H          1  LIG1   0.0800
     38 H15       -16.1659    16.5766   -20.1613 H          1  LIG1   0.0600
     39 H16       -18.0088    15.6229   -16.6688 H          1  LIG1   0.4000
     40 H17       -13.7572    15.8904   -15.2828 H          1  LIG1   0.0800
     41 H18       -14.6431    16.4360   -13.8333 H          1  LIG1   0.0900
     42 H19       -12.5482    14.4600   -12.9074 H          1  LIG1   0.1400
     43 H20       -12.6316    12.1441   -12.0883 H          1  LIG1   0.1400
     44 H21       -16.3508    11.5739   -14.1457 H          1  LIG1   0.1400
     45 H22       -17.3823    14.3614   -14.7160 H          1  LIG1   0.0900
     46 H23       -16.5043    13.8142   -16.1697 H          1  LIG1   0.0900
     47 H24       -20.1389    18.3920   -17.8223 H          1  LIG1   0.1500
     48 H25       -20.0784    17.0581   -16.6247 H          1  LIG1   0.1400
@<TRIPOS>BOND
     1    1    2 1
     2    1   27 1
     3    1   28 1
     4    1   29 1
     5    2    3 1
     6    2    4 1
     7    2   30 1
     8    3   31 1
     9    3   32 1
    10    3   33 1
    11    4    5 1
    12    4   26 1
    13    4    6 1
    14    6    7 1
    15    6   34 1
    16    6   35 1
    17    7    8 1
    18    7    9 1
    19    7   10 1
    20    9   36 1
    21    9   37 1
    22    9   38 1
    23   10   11 1
    24   10   12 1
    25   10   26 1
    26   12   13 am
    27   12   39 1
    28   13   14 2
    29   13   15 am
    30   15   25 1
    31   15   16 1
    32   16   17 1
    33   16   40 1
    34   16   41 1
    35   17   24 ar
    36   17   18 ar
    37   18   19 ar
    38   18   42 1
    39   19   20 ar
    40   19   43 1
    41   20   21 1
    42   20   23 ar
    43   21   22 3
    44   23   24 ar
    45   23   44 1
    46   24   25 1
    47   25   45 1
    48   25   46 1
    49   26   47 1
    50   26   48 1
##########                 Name:     ZINC000437075156
##########          Protonation:                 none
##########               SMILES:   C[C@H]([NH2+][C@H](CO)CC1=CC=CC=C1)C1=CC2=C(CCC2)S1
##########            Long Name:   NO_LONG_NAME
##########          FlexRecCode: 1
##########               Number:                 8488
##########   Ligand Source File: /nfs/db/export/3D/DG/ADRO/DGADRO.xarc.db2.gz
##########                 Rank:                    1
##########               Setnum:                   71
##########             Matchnum:                    1
##########                Cloud:                    1
##########        Electrostatic:           -46.555412
##########                 Gist:             0.000000
##########        Van der Waals:           -24.056366
##########  Ligand Polar Desolv:            11.094561
########## Ligand Apolar Desolv:            -4.424379
##########      Internal Energy:             0.000000
##########      Receptor Energy:             0.000000
########## Receptor Desolvation:             0.000000
########## Receptor Hydrophobic:             0.000000
##########         Total Energy:           -63.941597
##########        Ligand Charge:             1.000000
##########            Arbitrary:    +999.9990
##########        Ligand Energy:             0.000000

@<TRIPOS>MOLECULE
 ZINC000437075156      none
   45    47     0     0     0



@<TRIPOS>ATOM
      1 C1        -17.9098    17.1585   -15.7640 C.3        1  LIG1  -0.1800
      2 C2        -16.6668    16.5996   -16.4593 C.3        1  LIG1   0.1100
      3 H1        -15.9944    17.4184   -16.7152 H          1  LIG1   0.1500
      4 N1        -17.0666    15.8934   -17.6840 N.4        1  LIG1  -0.5100
      5 H2        -16.3317    15.2611   -17.9627 H          1  LIG1   0.4200
      6 H3        -17.9121    15.3710   -17.5100 H          1  LIG1   0.4400
      7 C3        -17.3058    16.8692   -18.7558 C.3        1  LIG1   0.0300
      8 H4        -17.8166    17.7407   -18.3465 H          1  LIG1   0.1500
      9 C4        -18.1755    16.2315   -19.8413 C.3        1  LIG1   0.0500
     10 O1        -19.4248    15.8296   -19.2756 O.3        1  LIG1  -0.5800
     11 C5        -15.9683    17.2995   -19.3613 C.3        1  LIG1  -0.0900
     12 C6        -16.2135    18.3004   -20.4609 C.ar       1  LIG1  -0.1300
     13 C7        -16.4046    17.8673   -21.7597 C.ar       1  LIG1  -0.1000
     14 C8        -16.6297    18.7853   -22.7684 C.ar       1  LIG1  -0.1000
     15 C9        -16.6638    20.1365   -22.4783 C.ar       1  LIG1  -0.1000
     16 C10       -16.4734    20.5695   -21.1794 C.ar       1  LIG1  -0.1100
     17 C11       -16.2528    19.6511   -20.1700 C.ar       1  LIG1  -0.1400
     18 C12       -15.9619    15.6412   -15.5344 C.2        1  LIG1  -0.2800
     19 C13       -16.1947    14.3375   -15.4631 C.2        1  LIG1  -0.0500
     20 C14       -15.4217    13.6338   -14.5300 C.2        1  LIG1  -0.1300
     21 C15       -14.5626    14.4044   -13.8525 C.2        1  LIG1  -0.1600
     22 C16       -13.7624    13.5734   -12.8611 C.3        1  LIG1  -0.0500
     23 C17       -14.5587    12.2612   -12.7120 C.3        1  LIG1  -0.1200
     24 C18       -15.2915    12.1838   -14.0658 C.3        1  LIG1  -0.0600
     25 S1        -14.7020    16.0793   -14.3925 S.3        1  LIG1   0.1400
     26 H5        -18.5820    16.3397   -15.5081 H          1  LIG1   0.0800
     27 H6        -17.6131    17.6824   -14.8554 H          1  LIG1   0.1100
     28 H7        -18.4197    17.8517   -16.4332 H          1  LIG1   0.0900
     29 H8        -18.3530    16.9555   -20.6365 H          1  LIG1   0.0700
     30 H9        -17.6648    15.3600   -20.2506 H          1  LIG1   0.1000
     31 H10       -19.3431    15.1845   -18.5599 H          1  LIG1   0.4100
     32 H11       -15.3488    17.7537   -18.5880 H          1  LIG1   0.1100
     33 H12       -15.4575    16.4279   -19.7706 H          1  LIG1   0.1200
     34 H13       -16.3781    16.8116   -21.9864 H          1  LIG1   0.1300
     35 H14       -16.7784    18.4470   -23.7832 H          1  LIG1   0.1300
     36 H15       -16.8389    20.8537   -23.2665 H          1  LIG1   0.1300
     37 H16       -16.4999    21.6251   -20.9527 H          1  LIG1   0.1300
     38 H17       -16.1041    19.9894   -19.1552 H          1  LIG1   0.1200
     39 H18       -16.9323    13.8501   -16.0834 H          1  LIG1   0.1500
     40 H19       -12.7661    13.3700   -13.2537 H          1  LIG1   0.0900
     41 H20       -13.6954    14.0874   -11.9023 H          1  LIG1   0.0800
     42 H21       -13.8891    11.4110   -12.5815 H          1  LIG1   0.0900
     43 H22       -15.2686    12.3271   -11.8875 H          1  LIG1   0.0800
     44 H23       -16.2774    11.7371   -13.9378 H          1  LIG1   0.0800
     45 H24       -14.7044    11.6086   -14.7818 H          1  LIG1   0.0900
@<TRIPOS>BOND
     1    1    2 1
     2    1   26 1
     3    1   27 1
     4    1   28 1
     5    2    3 1
     6    2    4 1
     7    2   18 1
     8    4    5 1
     9    4    6 1
    10    4    7 1
    11    7    8 1
    12    7    9 1
    13    7   11 1
    14    9   10 1
    15    9   29 1
    16    9   30 1
    17   10   31 1
    18   11   12 1
    19   11   32 1
    20   11   33 1
    21   12   17 ar
    22   12   13 ar
    23   13   14 ar
    24   13   34 1
    25   14   15 ar
    26   14   35 1
    27   15   16 ar
    28   15   36 1
    29   16   17 ar
    30   16   37 1
    31   17   38 1
    32   18   25 1
    33   18   19 2
    34   19   20 1
    35   19   39 1
    36   20   24 1
    37   20   21 2
    38   21   22 1
    39   21   25 1
    40   22   23 1
    41   22   40 1
    42   22   41 1
    43   23   24 1
    44   23   42 1
    45   23   43 1
    46   24   44 1
    47   24   45 1
##########                 Name:     ZINC000265162697
##########          Protonation:                 none
##########               SMILES:   COC(=O)C1=CC(C(=O)OC)=CC(NC(=O)[C@@H](C)N2CC[C@H](O)C2)=C1
##########            Long Name:   NO_LONG_NAME
##########          FlexRecCode: 1
##########               Number:                11974
##########   Ligand Source File: /nfs/db/export/3D/FC/ADRO/FCADRO.xaby.db2.gz
##########                 Rank:                    1
##########               Setnum:                   27
##########             Matchnum:                    1
##########                Cloud:                    1
##########        Electrostatic:           -49.935127
##########                 Gist:             0.000000
##########        Van der Waals:           -33.368046
##########  Ligand Polar Desolv:            15.358775
########## Ligand Apolar Desolv:            -2.172409
##########      Internal Energy:             0.000000
##########      Receptor Energy:             0.000000
########## Receptor Desolvation:             0.000000
########## Receptor Hydrophobic:             0.000000
##########         Total Energy:           -70.116814
##########        Ligand Charge:             1.000000
##########            Arbitrary:    +999.9990
##########        Ligand Energy:             0.000000

@<TRIPOS>MOLECULE
 ZINC000265162697      none
   48    49     0     0     0



@<TRIPOS>ATOM
      1 C1        -14.6778    12.9675   -12.2499 C.3        1  LIG1   0.0400
      2 O1        -14.9747    13.9279   -13.2977 O.3        1  LIG1  -0.3500
      3 C2        -14.2434    15.0591   -13.3154 C.2        1  LIG1   0.5100
      4 O2        -13.3814    15.2382   -12.4786 O.2        1  LIG1  -0.5000
      5 C3        -14.4898    16.0818   -14.3530 C.ar       1  LIG1  -0.1100
      6 C4        -13.7299    17.2500   -14.3755 C.ar       1  LIG1   0.0000
      7 C5        -13.9658    18.2120   -15.3558 C.ar       1  LIG1  -0.1100
      8 C6        -13.1624    19.4517   -15.3841 C.2        1  LIG1   0.5100
      9 O3        -12.2957    19.6329   -14.5525 O.2        1  LIG1  -0.5000
     10 O4        -13.3909    20.3810   -16.3321 O.3        1  LIG1  -0.3500
     11 C7        -12.5637    21.5739   -16.2990 C.3        1  LIG1   0.0400
     12 C8        -14.9619    18.0026   -16.3118 C.ar       1  LIG1  -0.0400
     13 C9        -15.7163    16.8390   -16.2862 C.ar       1  LIG1   0.1100
     14 N1        -16.7138    16.6323   -17.2464 N.am       1  LIG1  -0.6400
     15 C10       -17.3636    17.6853   -17.7806 C.2        1  LIG1   0.5100
     16 O5        -17.0839    18.8121   -17.4294 O.2        1  LIG1  -0.5000
     17 C11       -18.4374    17.4629   -18.8143 C.3        1  LIG1   0.0100
     18 H1        -18.8455    18.4241   -19.1268 H          1  LIG1   0.1700
     19 C12       -17.8386    16.7450   -20.0254 C.3        1  LIG1  -0.1800
     20 N2        -19.5092    16.6400   -18.2378 N.4        1  LIG1  -0.3800
     21 H2        -19.1429    15.7468   -17.9445 H          1  LIG1   0.4400
     22 C13       -20.1306    17.3421   -17.0858 C.3        1  LIG1  -0.0100
     23 C14       -21.5211    16.6691   -16.9687 C.3        1  LIG1  -0.1800
     24 C15       -21.9200    16.4405   -18.4447 C.3        1  LIG1   0.0900
     25 H3        -22.5678    17.2460   -18.7907 H          1  LIG1   0.1000
     26 O6        -22.5762    15.1797   -18.5916 O.3        1  LIG1  -0.5500
     27 C16       -20.5922    16.4475   -19.2264 C.3        1  LIG1  -0.0100
     28 C17       -15.4805    15.8767   -15.3154 C.ar       1  LIG1  -0.0200
     29 H4        -15.3367    12.1050   -12.3503 H          1  LIG1   0.1100
     30 H5        -13.6404    12.6443   -12.3365 H          1  LIG1   0.0700
     31 H6        -14.8336    13.4322   -11.2763 H          1  LIG1   0.0700
     32 H7        -12.9603    17.4094   -13.6347 H          1  LIG1   0.1600
     33 H8        -12.8508    22.2379   -17.1144 H          1  LIG1   0.0700
     34 H9        -12.7028    22.0861   -15.3471 H          1  LIG1   0.0700
     35 H10       -11.5164    21.2929   -16.4109 H          1  LIG1   0.1100
     36 H11       -15.1456    18.7479   -17.0715 H          1  LIG1   0.1600
     37 H12       -16.9375    15.7312   -17.5272 H          1  LIG1   0.4200
     38 H13       -18.6152    16.5841   -20.7730 H          1  LIG1   0.0900
     39 H14       -17.0434    17.3557   -20.4531 H          1  LIG1   0.1000
     40 H15       -17.4304    15.7838   -19.7128 H          1  LIG1   0.1100
     41 H16       -19.5483    17.1825   -16.1783 H          1  LIG1   0.1500
     42 H17       -20.2348    18.4068   -17.2949 H          1  LIG1   0.1300
     43 H18       -21.4468    15.7200   -16.4378 H          1  LIG1   0.1100
     44 H19       -22.2310    17.3334   -16.4759 H          1  LIG1   0.1200
     45 H20       -22.0358    14.4219   -18.3295 H          1  LIG1   0.4100
     46 H21       -20.5883    17.2675   -19.9446 H          1  LIG1   0.1400
     47 H22       -20.4607    15.4970   -19.7434 H          1  LIG1   0.1500
     48 H23       -16.0695    14.9717   -15.2988 H          1  LIG1   0.1600
@<TRIPOS>BOND
     1    1    2 1
     2    1   29 1
     3    1   30 1
     4    1   31 1
     5    2    3 1
     6    3    4 2
     7    3    5 1
     8    5   28 ar
     9    5    6 ar
    10    6    7 ar
    11    6   32 1
    12    7    8 1
    13    7   12 ar
    14    8    9 2
    15    8   10 1
    16   10   11 1
    17   11   33 1
    18   11   34 1
    19   11   35 1
    20   12   13 ar
    21   12   36 1
    22   13   14 1
    23   13   28 ar
    24   14   15 am
    25   14   37 1
    26   15   16 2
    27   15   17 1
    28   17   18 1
    29   17   19 1
    30   17   20 1
    31   19   38 1
    32   19   39 1
    33   19   40 1
    34   20   21 1
    35   20   27 1
    36   20   22 1
    37   22   23 1
    38   22   41 1
    39   22   42 1
    40   23   24 1
    41   23   43 1
    42   23   44 1
    43   24   25 1
    44   24   26 1
    45   24   27 1
    46   26   45 1
    47   27   46 1
    48   27   47 1
    49   28   48 1
##########                 Name:     ZINC000176752603
##########          Protonation:                 none
##########               SMILES:   O[C@]1(C[NH2+]CC2=CN(C3=CC=C(Br)C=C3)N=C2)CCSC1
##########            Long Name:   NO_LONG_NAME
##########          FlexRecCode: 1
##########               Number:                12399
##########   Ligand Source File: /nfs/db/export/3D/FF/ADRO/FFADRO.xbuc.db2.gz
##########                 Rank:                    1
##########               Setnum:                  394
##########             Matchnum:                    1
##########                Cloud:                    1
##########        Electrostatic:           -42.709225
##########                 Gist:             0.000000
##########        Van der Waals:           -35.196602
##########  Ligand Polar Desolv:            13.334354
########## Ligand Apolar Desolv:            -4.188052
##########      Internal Energy:             0.000000
##########      Receptor Energy:             0.000000
########## Receptor Desolvation:             0.000000
########## Receptor Hydrophobic:             0.000000
##########         Total Energy:           -68.759521
##########        Ligand Charge:             1.000000
##########            Arbitrary:    +999.9990
##########        Ligand Energy:             0.000000

@<TRIPOS>MOLECULE
 ZINC000176752603      none
   40    42     0     0     0



@<TRIPOS>ATOM
      1 O1        -20.4744    15.6929   -19.8195 O.3        1  LIG1  -0.5500
      2 C1        -20.3284    17.0359   -19.3533 C.3        1  LIG1   0.1100
      3 C2        -18.8540    17.4409   -19.4080 C.3        1  LIG1   0.0100
      4 N1        -18.1520    16.8929   -18.2397 N.4        1  LIG1  -0.5100
      5 H1        -18.5694    17.2556   -17.3958 H          1  LIG1   0.4300
      6 H2        -18.2247    15.8866   -18.2452 H          1  LIG1   0.4300
      7 C3        -16.7364    17.2817   -18.2922 C.3        1  LIG1   0.0900
      8 C4        -16.0163    16.7195   -17.0937 C.2        1  LIG1  -0.3100
      9 C5        -16.1299    15.4585   -16.6159 C.2        1  LIG1   0.1100
     10 N2        -15.3246    15.3541   -15.5347 N.pl3      1  LIG1  -0.3000
     11 C6        -15.1484    14.2094   -14.7446 C.ar       1  LIG1   0.1400
     12 C7        -14.2902    14.2427   -13.6537 C.ar       1  LIG1  -0.1300
     13 C8        -14.1186    13.1138   -12.8768 C.ar       1  LIG1  -0.0600
     14 C9        -14.8011    11.9503   -13.1849 C.ar       1  LIG1  -0.0900
     15 Br1       -14.5643    10.4067   -12.1186 Br         1  LIG1  -0.0200
     16 C10       -15.6569    11.9144   -14.2714 C.ar       1  LIG1  -0.0600
     17 C11       -15.8361    13.0421   -15.0484 C.ar       1  LIG1  -0.1000
     18 N3        -14.6974    16.5921   -15.3441 N.2        1  LIG1  -0.2600
     19 C12       -15.1078    17.4074   -16.2819 C.2        1  LIG1   0.0800
     20 C13       -20.8346    17.1372   -17.9040 C.3        1  LIG1  -0.1500
     21 C14       -22.3820    17.0423   -17.9591 C.3        1  LIG1  -0.0900
     22 S1        -22.7842    18.0978   -19.4047 S.3        1  LIG1  -0.2300
     23 C15       -21.1593    17.9854   -20.2412 C.3        1  LIG1  -0.1500
     24 H3        -19.9773    15.0420   -19.3054 H          1  LIG1   0.4100
     25 H4        -18.4031    17.0490   -20.3196 H          1  LIG1   0.1500
     26 H5        -18.7753    18.5281   -19.4021 H          1  LIG1   0.1500
     27 H6        -16.2854    16.8898   -19.2037 H          1  LIG1   0.1400
     28 H7        -16.6578    18.3690   -18.2862 H          1  LIG1   0.1400
     29 H8        -16.7519    14.6761   -17.0249 H          1  LIG1   0.1900
     30 H9        -13.7570    15.1506   -13.4131 H          1  LIG1   0.1400
     31 H10       -13.4509    13.1392   -12.0284 H          1  LIG1   0.1500
     32 H11       -16.1882    11.0049   -14.5100 H          1  LIG1   0.1500
     33 H12       -16.5044    13.0137   -15.8963 H          1  LIG1   0.1500
     34 H13       -14.8034    18.4366   -16.4037 H          1  LIG1   0.2000
     35 H14       -20.4319    16.3162   -17.3108 H          1  LIG1   0.1100
     36 H15       -20.5353    18.0917   -17.4710 H          1  LIG1   0.1000
     37 H16       -22.7020    16.0142   -18.1284 H          1  LIG1   0.1000
     38 H17       -22.8281    17.4439   -17.0493 H          1  LIG1   0.1200
     39 H18       -20.6890    18.9673   -20.2914 H          1  LIG1   0.1100
     40 H19       -21.2749    17.5667   -21.2409 H          1  LIG1   0.1100
@<TRIPOS>BOND
     1    1    2 1
     2    1   24 1
     3    2   23 1
     4    2    3 1
     5    2   20 1
     6    3    4 1
     7    3   25 1
     8    3   26 1
     9    4    5 1
    10    4    6 1
    11    4    7 1
    12    7    8 1
    13    7   27 1
    14    7   28 1
    15    8   19 1
    16    8    9 2
    17    9   10 1
    18    9   29 1
    19   10   11 1
    20   10   18 1
    21   11   17 ar
    22   11   12 ar
    23   12   13 ar
    24   12   30 1
    25   13   14 ar
    26   13   31 1
    27   14   15 1
    28   14   16 ar
    29   16   17 ar
    30   16   32 1
    31   17   33 1
    32   18   19 2
    33   19   34 1
    34   20   21 1
    35   20   35 1
    36   20   36 1
    37   21   22 1
    38   21   37 1
    39   21   38 1
    40   22   23 1
    41   23   39 1
    42   23   40 1
##########                 Name:     ZINC000451479054
##########          Protonation:                 none
##########               SMILES:   CC1(C)[C@H]([NH2+]CC(=O)NC2=CC=C([N+](=O)[O-])C=C2Cl)[C@H]2CCCO[C@H]21
##########            Long Name:   NO_LONG_NAME
##########          FlexRecCode: 1
##########               Number:                 5118
##########   Ligand Source File: /nfs/db/export/3D/FF/BDRO/FFBDRO.xbs.db2.gz
##########                 Rank:                    1
##########               Setnum:                  195
##########             Matchnum:                    1
##########                Cloud:                    1
##########        Electrostatic:           -49.188000
##########                 Gist:             0.000000
##########        Van der Waals:           -32.605717
##########  Ligand Polar Desolv:            18.897112
########## Ligand Apolar Desolv:            -4.805485
##########      Internal Energy:             0.000000
##########      Receptor Energy:             0.000000
########## Receptor Desolvation:             0.000000
########## Receptor Hydrophobic:             0.000000
##########         Total Energy:           -67.702087
##########        Ligand Charge:             1.000000
##########            Arbitrary:    +999.9990
##########        Ligand Energy:             0.000000

@<TRIPOS>MOLECULE
 ZINC000451479054      none
   48    50     0     0     0



@<TRIPOS>ATOM
      1 C1        -21.3481    15.5291   -20.0318 C.3        1  LIG1  -0.1400
      2 C2        -20.7253    16.7184   -19.2978 C.3        1  LIG1  -0.0800
      3 C3        -21.1440    16.7956   -17.8282 C.3        1  LIG1  -0.1600
      4 C4        -19.2085    16.8533   -19.5171 C.3        1  LIG1  -0.0100
      5 H1        -18.8598    16.4091   -20.4495 H          1  LIG1   0.1700
      6 N1        -18.4061    16.4476   -18.3554 N.4        1  LIG1  -0.4900
      7 H2        -18.3912    17.1962   -17.6790 H          1  LIG1   0.4300
      8 H3        -18.8122    15.6241   -17.9372 H          1  LIG1   0.4400
      9 C5        -17.0337    16.1512   -18.7878 C.3        1  LIG1  -0.0300
     10 C6        -16.2104    15.7351   -17.5961 C.2        1  LIG1   0.5100
     11 O1        -15.2278    16.3744   -17.2848 O.2        1  LIG1  -0.5000
     12 N2        -16.5660    14.6525   -16.8764 N.am       1  LIG1  -0.6500
     13 C7        -15.8013    14.2660   -15.7695 C.ar       1  LIG1   0.1900
     14 C8        -15.1192    15.2204   -15.0276 C.ar       1  LIG1  -0.1000
     15 C9        -14.3656    14.8359   -13.9353 C.ar       1  LIG1  -0.0300
     16 C10       -14.2901    13.5019   -13.5803 C.ar       1  LIG1  -0.0300
     17 N3        -13.4820    13.0942   -12.4091 N.pl3      1  LIG1   0.0200
     18 O2        -12.8847    13.9334   -11.7593 O.2        1  LIG1  -0.1400
     19 O3        -13.4146    11.9192   -12.0951 O.2        1  LIG1  -0.1400
     20 C11       -14.9682    12.5477   -14.3168 C.ar       1  LIG1  -0.0300
     21 C12       -15.7280    12.9260   -15.4072 C.ar       1  LIG1  -0.0600
     22 Cl1       -16.5791    11.7279   -16.3314 Cl         1  LIG1  -0.0200
     23 C13       -19.4462    18.3678   -19.6066 C.3        1  LIG1  -0.1400
     24 H4        -19.4105    18.8547   -18.6321 H          1  LIG1   0.1200
     25 C14       -18.5695    19.0710   -20.6280 C.3        1  LIG1  -0.1200
     26 C15       -18.8799    18.5797   -22.0409 C.3        1  LIG1  -0.1600
     27 C16       -20.3813    18.7409   -22.2983 C.3        1  LIG1   0.0600
     28 O4        -21.0952    17.8704   -21.4261 O.3        1  LIG1  -0.3500
     29 C17       -20.8690    18.0540   -20.0520 C.3        1  LIG1   0.1000
     30 H5        -21.5997    18.7223   -19.5962 H          1  LIG1   0.1000
     31 H6        -21.2081    14.6238   -19.4410 H          1  LIG1   0.0800
     32 H7        -22.4135    15.7083   -20.1754 H          1  LIG1   0.0600
     33 H8        -20.8661    15.4080   -21.0019 H          1  LIG1   0.0800
     34 H9        -20.6709    17.6590   -17.3604 H          1  LIG1   0.0700
     35 H10       -22.2275    16.8959   -17.7639 H          1  LIG1   0.0700
     36 H11       -20.8320    15.8868   -17.3133 H          1  LIG1   0.1000
     37 H12       -17.0496    15.3427   -19.5185 H          1  LIG1   0.1700
     38 H13       -16.5950    17.0408   -19.2398 H          1  LIG1   0.1700
     39 H14       -17.3518    14.1412   -17.1253 H          1  LIG1   0.4300
     40 H15       -15.1772    16.2629   -15.3043 H          1  LIG1   0.1700
     41 H16       -13.8345    15.5785   -13.3583 H          1  LIG1   0.1700
     42 H17       -14.9073    11.5064   -14.0368 H          1  LIG1   0.1800
     43 H18       -18.7479    20.1451   -20.5745 H          1  LIG1   0.0900
     44 H19       -17.5226    18.8704   -20.4006 H          1  LIG1   0.0700
     45 H20       -18.3193    19.1711   -22.7650 H          1  LIG1   0.0900
     46 H21       -18.6042    17.5291   -22.1316 H          1  LIG1   0.0700
     47 H22       -20.6760    19.7725   -22.1059 H          1  LIG1   0.0600
     48 H23       -20.6040    18.4832   -23.3338 H          1  LIG1   0.1100
@<TRIPOS>BOND
     1    1    2 1
     2    1   31 1
     3    1   32 1
     4    1   33 1
     5    2   29 1
     6    2    3 1
     7    2    4 1
     8    3   34 1
     9    3   35 1
    10    3   36 1
    11    4    5 1
    12    4    6 1
    13    4   23 1
    14    6    7 1
    15    6    8 1
    16    6    9 1
    17    9   10 1
    18    9   37 1
    19    9   38 1
    20   10   11 2
    21   10   12 am
    22   12   13 1
    23   12   39 1
    24   13   21 ar
    25   13   14 ar
    26   14   15 ar
    27   14   40 1
    28   15   16 ar
    29   15   41 1
    30   16   17 1
    31   16   20 ar
    32   17   18 2
    33   17   19 2
    34   20   21 ar
    35   20   42 1
    36   21   22 1
    37   23   24 1
    38   23   29 1
    39   23   25 1
    40   25   26 1
    41   25   43 1
    42   25   44 1
    43   26   27 1
    44   26   45 1
    45   26   46 1
    46   27   28 1
    47   27   47 1
    48   27   48 1
    49   28   29 1
    50   29   30 1
##########                 Name:     ZINC000270269326
##########          Protonation:                 none
##########               SMILES:   ClC1=CC=C(N2C=C(C[NH2+]C[C@@H]3CCCOC3)N=N2)C(Cl)=C1
##########            Long Name:   NO_LONG_NAME
##########          FlexRecCode: 1
##########               Number:                 2345
##########   Ligand Source File: /nfs/db/export/3D/EG/ADRO/EGADRO.xcrf.db2.gz
##########                 Rank:                    1
##########               Setnum:                   31
##########             Matchnum:                    1
##########                Cloud:                    1
##########        Electrostatic:           -39.430012
##########                 Gist:             0.000000
##########        Van der Waals:           -36.094597
##########  Ligand Polar Desolv:            16.411364
########## Ligand Apolar Desolv:            -4.874206
##########      Internal Energy:             0.000000
##########      Receptor Energy:             0.000000
########## Receptor Desolvation:             0.000000
########## Receptor Hydrophobic:             0.000000
##########         Total Energy:           -63.987453
##########        Ligand Charge:             1.000000
##########            Arbitrary:    +999.9990
##########        Ligand Energy:             0.000000

@<TRIPOS>MOLECULE
 ZINC000270269326      none
   41    43     0     0     0



@<TRIPOS>ATOM
      1 Cl1       -14.3997    10.3523   -12.1164 Cl         1  LIG1  -0.0200
      2 C1        -14.7452    11.7130   -13.1376 C.ar       1  LIG1   0.0000
      3 C2        -15.8802    11.7120   -13.9289 C.ar       1  LIG1  -0.0900
      4 C3        -16.1578    12.7934   -14.7426 C.ar       1  LIG1  -0.0700
      5 C4        -15.2973    13.8818   -14.7663 C.ar       1  LIG1   0.1000
      6 N1        -15.5775    14.9812   -15.5915 N.pl3      1  LIG1  -0.2300
      7 C5        -16.2510    14.9418   -16.7736 C.2        1  LIG1   0.0100
      8 C6        -16.2905    16.2176   -17.2247 C.2        1  LIG1  -0.1000
      9 C7        -16.9291    16.7032   -18.5003 C.3        1  LIG1   0.1000
     10 N2        -18.3297    17.0624   -18.2408 N.4        1  LIG1  -0.5100
     11 H1        -18.8275    16.2526   -17.9026 H          1  LIG1   0.4300
     12 H2        -18.3663    17.7938   -17.5467 H          1  LIG1   0.4300
     13 C8        -18.9523    17.5358   -19.4843 C.3        1  LIG1   0.0000
     14 C9        -20.4110    17.9100   -19.2141 C.3        1  LIG1  -0.1500
     15 H3        -20.4849    18.4158   -18.2514 H          1  LIG1   0.1000
     16 C10       -21.2694    16.6416   -19.1930 C.3        1  LIG1  -0.1100
     17 C11       -22.7372    17.0347   -18.9994 C.3        1  LIG1  -0.1600
     18 C12       -23.1508    17.9977   -20.1154 C.3        1  LIG1   0.0500
     19 O1        -22.2934    19.1408   -20.0984 O.3        1  LIG1  -0.3700
     20 C13       -20.9140    18.8406   -20.3209 C.3        1  LIG1   0.0500
     21 N3        -15.6520    16.9628   -16.3156 N.2        1  LIG1  -0.2300
     22 N4        -15.2471    16.2036   -15.3597 N.2        1  LIG1  -0.0300
     23 C14       -14.1579    13.8810   -13.9710 C.ar       1  LIG1   0.0000
     24 Cl2       -13.0787    15.2405   -13.9977 Cl         1  LIG1  -0.0200
     25 C15       -13.8878    12.7992   -13.1545 C.ar       1  LIG1  -0.0900
     26 H4        -16.5497    10.8648   -13.9107 H          1  LIG1   0.1600
     27 H5        -17.0439    12.7915   -15.3601 H          1  LIG1   0.1600
     28 H6        -16.6687    14.0696   -17.2544 H          1  LIG1   0.2100
     29 H7        -16.3914    17.5780   -18.8658 H          1  LIG1   0.1500
     30 H8        -16.8897    15.9131   -19.2501 H          1  LIG1   0.1500
     31 H9        -18.4145    18.4107   -19.8497 H          1  LIG1   0.1400
     32 H10       -18.9127    16.7457   -20.2341 H          1  LIG1   0.1400
     33 H11       -21.1560    16.1089   -20.1372 H          1  LIG1   0.0800
     34 H12       -20.9522    16.0002   -18.3707 H          1  LIG1   0.0800
     35 H13       -23.3615    16.1421   -19.0387 H          1  LIG1   0.0900
     36 H14       -22.8590    17.5233   -18.0329 H          1  LIG1   0.0800
     37 H15       -23.0672    17.4949   -21.0789 H          1  LIG1   0.0600
     38 H16       -24.1819    18.3143   -19.9586 H          1  LIG1   0.1100
     39 H17       -20.3350    19.7639   -20.3124 H          1  LIG1   0.0900
     40 H18       -20.8002    18.3487   -21.2869 H          1  LIG1   0.0700
     41 H19       -13.0024    12.7976   -12.5360 H          1  LIG1   0.1700
@<TRIPOS>BOND
     1    1    2 1
     2    2   25 ar
     3    2    3 ar
     4    3    4 ar
     5    3   26 1
     6    4    5 ar
     7    4   27 1
     8    5    6 1
     9    5   23 ar
    10    6   22 1
    11    6    7 1
    12    7    8 2
    13    7   28 1
    14    8    9 1
    15    8   21 1
    16    9   10 1
    17    9   29 1
    18    9   30 1
    19   10   11 1
    20   10   12 1
    21   10   13 1
    22   13   14 1
    23   13   31 1
    24   13   32 1
    25   14   15 1
    26   14   20 1
    27   14   16 1
    28   16   17 1
    29   16   33 1
    30   16   34 1
    31   17   18 1
    32   17   35 1
    33   17   36 1
    34   18   19 1
    35   18   37 1
    36   18   38 1
    37   19   20 1
    38   20   39 1
    39   20   40 1
    40   21   22 2
    41   23   24 1
    42   23   25 ar
    43   25   41 1
##########                 Name:     ZINC000640050710
##########          Protonation:                 none
##########               SMILES:   CC1=CC(C(=O)C[N@H+]2C[C@H](O)C[C@H]2C2CC2)=C(C)N1C1=NC=CS1
##########            Long Name:   NO_LONG_NAME
##########          FlexRecCode: 1
##########               Number:                 9072
##########   Ligand Source File: /nfs/db/export/3D/EF/ADMO/EFADMO.xbnw.db2.gz
##########                 Rank:                    1
##########               Setnum:                  329
##########             Matchnum:                    1
##########                Cloud:                    1
##########        Electrostatic:           -40.712826
##########                 Gist:             0.000000
##########        Van der Waals:           -31.147493
##########  Ligand Polar Desolv:            12.205053
########## Ligand Apolar Desolv:            -4.793863
##########      Internal Energy:             0.000000
##########      Receptor Energy:             0.000000
########## Receptor Desolvation:             0.000000
########## Receptor Hydrophobic:             0.000000
##########         Total Energy:           -64.449127
##########        Ligand Charge:             1.000000
##########            Arbitrary:    +999.9990
##########        Ligand Energy:             0.000000

@<TRIPOS>MOLECULE
 ZINC000640050710      none
   48    51     0     0     0



@<TRIPOS>ATOM
      1 C1        -12.3241    15.5287   -13.4468 C.3        1  LIG1  -0.1000
      2 C2        -13.6903    15.6075   -14.0778 C.2        1  LIG1   0.0300
      3 C3        -14.1951    16.6796   -14.7104 C.2        1  LIG1  -0.1400
      4 C4        -15.5427    16.3016   -15.1583 C.2        1  LIG1  -0.2800
      5 C5        -16.4929    17.1360   -15.8965 C.2        1  LIG1   0.4300
      6 O1        -17.2860    17.8300   -15.2947 O.2        1  LIG1  -0.4600
      7 C6        -16.4863    17.1329   -17.4035 C.3        1  LIG1  -0.0400
      8 N1        -17.7953    16.6865   -17.8981 N.4        1  LIG1  -0.3800
      9 H1        -17.9935    15.7542   -17.5667 H          1  LIG1   0.4300
     10 C7        -18.8579    17.6246   -17.4538 C.3        1  LIG1  -0.0400
     11 C8        -20.0011    17.3715   -18.4685 C.3        1  LIG1   0.0900
     12 H2        -20.6509    18.2434   -18.5427 H          1  LIG1   0.1100
     13 O2        -20.7533    16.2124   -18.1038 O.3        1  LIG1  -0.5500
     14 C9        -19.2415    17.1406   -19.7948 C.3        1  LIG1  -0.1300
     15 C10       -17.8198    16.7182   -19.3766 C.3        1  LIG1   0.0600
     16 H3        -17.5942    15.7289   -19.7747 H          1  LIG1   0.1400
     17 C11       -16.8002    17.7338   -19.8960 C.3        1  LIG1  -0.2100
     18 C12       -15.3902    17.2255   -20.2029 C.3        1  LIG1  -0.1700
     19 C13       -16.3375    17.5912   -21.3474 C.3        1  LIG1  -0.1500
     20 C14       -15.7297    14.9973   -14.7411 C.2        1  LIG1   0.1800
     21 C15       -16.9659    14.1654   -14.9661 C.3        1  LIG1  -0.1100
     22 N2        -14.6118    14.5967   -14.1029 N.pl3      1  LIG1  -0.3600
     23 C16       -14.4250    13.3356   -13.5405 C.2        1  LIG1   0.2000
     24 N3        -14.9581    12.2399   -13.9816 N.2        1  LIG1  -0.4600
     25 C17       -14.6740    11.1310   -13.3269 C.2        1  LIG1   0.0500
     26 C18       -13.8609    11.2969   -12.2806 C.2        1  LIG1  -0.2400
     27 S1        -13.4535    13.0076   -12.1725 S.3        1  LIG1   0.2100
     28 H4        -11.8080    16.4798   -13.5777 H          1  LIG1   0.0800
     29 H5        -12.4269    15.3144   -12.3831 H          1  LIG1   0.1000
     30 H6        -11.7492    14.7348   -13.9235 H          1  LIG1   0.0700
     31 H7        -13.7072    17.6313   -14.8599 H          1  LIG1   0.1600
     32 H8        -16.2843    18.1401   -17.7680 H          1  LIG1   0.1600
     33 H9        -15.7118    16.4548   -17.7619 H          1  LIG1   0.1600
     34 H10       -19.1825    17.3863   -16.4409 H          1  LIG1   0.1500
     35 H11       -18.5106    18.6560   -17.5150 H          1  LIG1   0.1400
     36 H12       -20.2313    15.3991   -18.0707 H          1  LIG1   0.4000
     37 H13       -19.7174    16.3463   -20.3700 H          1  LIG1   0.1200
     38 H14       -19.2075    18.0617   -20.3766 H          1  LIG1   0.1200
     39 H15       -16.8957    18.7429   -19.4949 H          1  LIG1   0.1300
     40 H16       -14.5575    17.9001   -20.0037 H          1  LIG1   0.1100
     41 H17       -15.1889    16.1675   -20.0347 H          1  LIG1   0.1100
     42 H18       -16.7594    16.7738   -21.9321 H          1  LIG1   0.1100
     43 H19       -16.1281    18.5064   -21.9011 H          1  LIG1   0.1100
     44 H20       -16.8246    13.1781   -14.5260 H          1  LIG1   0.0900
     45 H21       -17.8216    14.6524   -14.4987 H          1  LIG1   0.0900
     46 H22       -17.1457    14.0635   -16.0364 H          1  LIG1   0.1000
     47 H23       -15.0675    10.1669   -13.6134 H          1  LIG1   0.1900
     48 H24       -13.5107    10.5182   -11.6194 H          1  LIG1   0.2000
@<TRIPOS>BOND
     1    1    2 1
     2    1   28 1
     3    1   29 1
     4    1   30 1
     5    2   22 1
     6    2    3 2
     7    3    4 1
     8    3   31 1
     9    4    5 1
    10    4   20 2
    11    5    6 2
    12    5    7 1
    13    7    8 1
    14    7   32 1
    15    7   33 1
    16    8    9 1
    17    8   15 1
    18    8   10 1
    19   10   11 1
    20   10   34 1
    21   10   35 1
    22   11   12 1
    23   11   13 1
    24   11   14 1
    25   13   36 1
    26   14   15 1
    27   14   37 1
    28   14   38 1
    29   15   16 1
    30   15   17 1
    31   17   19 1
    32   17   18 1
    33   17   39 1
    34   18   19 1
    35   18   40 1
    36   18   41 1
    37   19   42 1
    38   19   43 1
    39   20   21 1
    40   20   22 1
    41   21   44 1
    42   21   45 1
    43   21   46 1
    44   22   23 1
    45   23   27 1
    46   23   24 2
    47   24   25 1
    48   25   26 2
    49   25   47 1
    50   26   27 1
    51   26   48 1
##########                 Name:     ZINC000343213239
##########          Protonation:                 none
##########               SMILES:   C[N@@H+](CC(=O)NCCC1=CSC2=CC=CC=C12)[C@@H]1CCSC1
##########            Long Name:   NO_LONG_NAME
##########          FlexRecCode: 1
##########               Number:                 8683
##########   Ligand Source File: /nfs/db/export/3D/EF/ADMO/EFADMO.xbte.db2.gz
##########                 Rank:                    1
##########               Setnum:                   69
##########             Matchnum:                    1
##########                Cloud:                    1
##########        Electrostatic:           -46.316887
##########                 Gist:             0.000000
##########        Van der Waals:           -32.929440
##########  Ligand Polar Desolv:            16.918285
########## Ligand Apolar Desolv:            -5.961216
##########      Internal Energy:             0.000000
##########      Receptor Energy:             0.000000
########## Receptor Desolvation:             0.000000
########## Receptor Hydrophobic:             0.000000
##########         Total Energy:           -68.289253
##########        Ligand Charge:             1.000000
##########            Arbitrary:    +999.9990
##########        Ligand Energy:             0.000000

@<TRIPOS>MOLECULE
 ZINC000343213239      none
   45    47     0     0     0



@<TRIPOS>ATOM
      1 C1        -17.4777    16.8766   -19.7719 C.3        1  LIG1  -0.0600
      2 N1        -18.5937    16.5564   -18.8718 N.4        1  LIG1  -0.3700
      3 H1        -18.4447    15.6466   -18.4618 H          1  LIG1   0.4300
      4 C2        -18.6701    17.5665   -17.8079 C.3        1  LIG1  -0.0400
      5 C3        -17.6423    17.2596   -16.7493 C.2        1  LIG1   0.5000
      6 O1        -16.7760    18.0687   -16.4925 O.2        1  LIG1  -0.5200
      7 N2        -17.6860    16.0863   -16.0878 N.am       1  LIG1  -0.7000
      8 C4        -16.6870    15.7879   -15.0585 C.3        1  LIG1   0.1200
      9 C5        -15.4869    15.0887   -15.7000 C.3        1  LIG1  -0.0700
     10 C6        -14.4593    14.7819   -14.6413 C.2        1  LIG1  -0.0900
     11 C7        -13.5000    15.6263   -14.3181 C.2        1  LIG1  -0.1800
     12 S1        -12.4726    14.9749   -13.0559 S.3        1  LIG1   0.1100
     13 C8        -13.4032    13.4845   -12.9740 C.ar       1  LIG1  -0.1400
     14 C9        -13.2402    12.3538   -12.1677 C.ar       1  LIG1  -0.0800
     15 C10       -14.1067    11.2924   -12.2827 C.ar       1  LIG1  -0.1000
     16 C11       -15.1475    11.3370   -13.1998 C.ar       1  LIG1  -0.1100
     17 C12       -15.3240    12.4278   -13.9948 C.ar       1  LIG1  -0.0800
     18 C13       -14.4542    13.5346   -13.8941 C.ar       1  LIG1  -0.0700
     19 C14       -19.8503    16.5507   -19.6327 C.3        1  LIG1   0.0300
     20 H2        -19.7827    15.7984   -20.4186 H          1  LIG1   0.1500
     21 C15       -20.0450    17.9240   -20.2772 C.3        1  LIG1  -0.1500
     22 C16       -21.5644    18.1997   -20.4268 C.3        1  LIG1  -0.0800
     23 S2        -22.1937    17.5648   -18.8186 S.3        1  LIG1  -0.2200
     24 C17       -21.0033    16.1795   -18.6863 C.3        1  LIG1  -0.1200
     25 H3        -17.6386    17.8593   -20.2149 H          1  LIG1   0.1200
     26 H4        -16.5454    16.8807   -19.2073 H          1  LIG1   0.1500
     27 H5        -17.4212    16.1272   -20.5613 H          1  LIG1   0.1300
     28 H6        -18.4749    18.5528   -18.2287 H          1  LIG1   0.1600
     29 H7        -19.6651    17.5515   -17.3633 H          1  LIG1   0.1600
     30 H8        -18.3787    15.4391   -16.2932 H          1  LIG1   0.4100
     31 H9        -16.3592    16.7162   -14.5905 H          1  LIG1   0.0800
     32 H10       -17.1267    15.1360   -14.3036 H          1  LIG1   0.0800
     33 H11       -15.8147    14.1604   -16.1680 H          1  LIG1   0.0900
     34 H12       -15.0473    15.7407   -16.4549 H          1  LIG1   0.0900
     35 H13       -13.3639    16.5960   -14.7737 H          1  LIG1   0.1700
     36 H14       -12.4314    12.3141   -11.4531 H          1  LIG1   0.1300
     37 H15       -13.9767    10.4212   -11.6577 H          1  LIG1   0.1300
     38 H16       -15.8233    10.4986   -13.2837 H          1  LIG1   0.1300
     39 H17       -16.1382    12.4483   -14.7042 H          1  LIG1   0.1200
     40 H18       -19.5945    18.6908   -19.6472 H          1  LIG1   0.1000
     41 H19       -19.5725    17.9372   -21.2593 H          1  LIG1   0.1200
     42 H20       -21.7617    19.2665   -20.5323 H          1  LIG1   0.1300
     43 H21       -21.9851    17.6398   -21.2620 H          1  LIG1   0.1100
     44 H22       -21.4689    15.2478   -19.0077 H          1  LIG1   0.1300
     45 H23       -20.6396    16.0890   -17.6627 H          1  LIG1   0.1200
@<TRIPOS>BOND
     1    1    2 1
     2    1   25 1
     3    1   26 1
     4    1   27 1
     5    2    3 1
     6    2    4 1
     7    2   19 1
     8    4    5 1
     9    4   28 1
    10    4   29 1
    11    5    6 2
    12    5    7 am
    13    7    8 1
    14    7   30 1
    15    8    9 1
    16    8   31 1
    17    8   32 1
    18    9   10 1
    19    9   33 1
    20    9   34 1
    21   10   18 1
    22   10   11 2
    23   11   12 1
    24   11   35 1
    25   12   13 1
    26   13   18 ar
    27   13   14 ar
    28   14   15 ar
    29   14   36 1
    30   15   16 ar
    31   15   37 1
    32   16   17 ar
    33   16   38 1
    34   17   18 ar
    35   17   39 1
    36   19   20 1
    37   19   24 1
    38   19   21 1
    39   21   22 1
    40   21   40 1
    41   21   41 1
    42   22   23 1
    43   22   42 1
    44   22   43 1
    45   23   24 1
    46   24   44 1
    47   24   45 1
##########                 Name:     ZINC000617989628
##########          Protonation:                 none
##########               SMILES:   C[N@@H+](CC(=O)NC1=CC=C2C=CN(C(F)F)C2=C1)[C@H]1CCSC1
##########            Long Name:   NO_LONG_NAME
##########          FlexRecCode: 1
##########               Number:                 4525
##########   Ligand Source File: /nfs/db/export/3D/EG/ADMO/EGADMO.xadi.db2.gz
##########                 Rank:                    1
##########               Setnum:                   70
##########             Matchnum:                    1
##########                Cloud:                    1
##########        Electrostatic:           -45.862770
##########                 Gist:             0.000000
##########        Van der Waals:           -31.655846
##########  Ligand Polar Desolv:            18.047712
########## Ligand Apolar Desolv:            -5.663950
##########      Internal Energy:             0.000000
##########      Receptor Energy:             0.000000
########## Receptor Desolvation:             0.000000
########## Receptor Hydrophobic:             0.000000
##########         Total Energy:           -65.134857
##########        Ligand Charge:             1.000000
##########            Arbitrary:    +999.9990
##########        Ligand Energy:             0.000000

@<TRIPOS>MOLECULE
 ZINC000617989628      none
   43    45     0     0     0



@<TRIPOS>ATOM
      1 C1        -16.8489    15.5993   -19.0784 C.3        1  LIG1  -0.0600
      2 N1        -17.8737    16.2383   -18.2420 N.4        1  LIG1  -0.3700
      3 H1        -18.4741    15.5306   -17.8461 H          1  LIG1   0.4300
      4 C2        -17.2239    16.9904   -17.1604 C.3        1  LIG1  -0.0300
      5 C3        -16.4026    16.0493   -16.3172 C.2        1  LIG1   0.5000
      6 O1        -15.2068    16.2202   -16.2075 O.2        1  LIG1  -0.5100
      7 N2        -16.9968    15.0179   -15.6853 N.am       1  LIG1  -0.6400
      8 C4        -16.2337    14.1436   -14.9020 C.ar       1  LIG1   0.1400
      9 C5        -16.6223    12.8112   -14.7746 C.ar       1  LIG1  -0.1300
     10 C6        -15.8890    11.9458   -14.0144 C.ar       1  LIG1  -0.0500
     11 C7        -14.7410    12.3969   -13.3596 C.ar       1  LIG1  -0.1000
     12 C8        -13.7500    11.7583   -12.4890 C.2        1  LIG1  -0.1800
     13 C9        -12.8559    12.7013   -12.1542 C.2        1  LIG1   0.0600
     14 N3        -13.1928    13.8929   -12.7390 N.pl3      1  LIG1  -0.5400
     15 C10       -12.4427    15.1431   -12.5953 C.3        1  LIG1   0.4900
     16 F1        -11.8123    15.1677   -11.3465 F          1  LIG1  -0.1800
     17 F2        -11.4791    15.2275   -13.6060 F          1  LIG1  -0.1800
     18 C11       -14.3413    13.7404   -13.4834 C.ar       1  LIG1   0.1200
     19 C12       -15.0961    14.6077   -14.2648 C.ar       1  LIG1  -0.1400
     20 C13       -18.6743    17.1557   -19.0639 C.3        1  LIG1   0.0200
     21 H2        -18.0278    17.9212   -19.4929 H          1  LIG1   0.1500
     22 C14       -19.3632    16.3697   -20.1930 C.3        1  LIG1  -0.1500
     23 C15       -20.4319    17.3099   -20.8100 C.3        1  LIG1  -0.0800
     24 S1        -21.1694    18.0884   -19.3214 S.3        1  LIG1  -0.2000
     25 C16       -19.7572    17.8222   -18.1904 C.3        1  LIG1  -0.1300
     26 H3        -16.2004    16.3639   -19.5062 H          1  LIG1   0.1200
     27 H4        -16.2548    14.9187   -18.4686 H          1  LIG1   0.1400
     28 H5        -17.3312    15.0412   -19.8810 H          1  LIG1   0.1300
     29 H6        -16.5754    17.7549   -17.5882 H          1  LIG1   0.1700
     30 H7        -17.9843    17.4646   -16.5399 H          1  LIG1   0.1600
     31 H8        -17.9530    14.8811   -15.7732 H          1  LIG1   0.4200
     32 H9        -17.5099    12.4609   -15.2804 H          1  LIG1   0.1400
     33 H10       -16.1961    10.9148   -13.9194 H          1  LIG1   0.1400
     34 H11       -13.7413    10.7248   -12.1761 H          1  LIG1   0.1600
     35 H12       -11.9977    12.5439   -11.5176 H          1  LIG1   0.1800
     36 H13       -13.1266    15.9882   -12.6738 H          1  LIG1   0.1500
     37 H14       -14.7979    15.6402   -14.3715 H          1  LIG1   0.1300
     38 H15       -18.6321    16.0889   -20.9511 H          1  LIG1   0.1200
     39 H16       -19.8413    15.4778   -19.7879 H          1  LIG1   0.1100
     40 H17       -19.9664    18.0596   -21.4498 H          1  LIG1   0.1100
     41 H18       -21.1799    16.7390   -21.3602 H          1  LIG1   0.1300
     42 H19       -20.0456    17.1640   -17.3709 H          1  LIG1   0.1100
     43 H20       -19.3949    18.7750   -17.8041 H          1  LIG1   0.1300
@<TRIPOS>BOND
     1    1    2 1
     2    1   26 1
     3    1   27 1
     4    1   28 1
     5    2    3 1
     6    2    4 1
     7    2   20 1
     8    4    5 1
     9    4   29 1
    10    4   30 1
    11    5    6 2
    12    5    7 am
    13    7    8 1
    14    7   31 1
    15    8   19 ar
    16    8    9 ar
    17    9   10 ar
    18    9   32 1
    19   10   11 ar
    20   10   33 1
    21   11   18 ar
    22   11   12 1
    23   12   13 2
    24   12   34 1
    25   13   14 1
    26   13   35 1
    27   14   15 1
    28   14   18 1
    29   15   16 1
    30   15   17 1
    31   15   36 1
    32   18   19 ar
    33   19   37 1
    34   20   21 1
    35   20   25 1
    36   20   22 1
    37   22   23 1
    38   22   38 1
    39   22   39 1
    40   23   24 1
    41   23   40 1
    42   23   41 1
    43   24   25 1
    44   25   42 1
    45   25   43 1
##########                 Name:     ZINC000185084297
##########          Protonation:                 none
##########               SMILES:   C[C@@H]([NH2+][C@@H]1CC2=CC=CC=C2[C@@H]1O)C1=NC(C2=CC=CC(F)=C2)=NO1
##########            Long Name:   NO_LONG_NAME
##########          FlexRecCode: 1
##########               Number:                14699
##########   Ligand Source File: /nfs/db/export/3D/EG/ADMO/EGADMO.xbbg.db2.gz
##########                 Rank:                    1
##########               Setnum:                  158
##########             Matchnum:                    1
##########                Cloud:                    1
##########        Electrostatic:           -45.558109
##########                 Gist:             0.000000
##########        Van der Waals:           -35.331539
##########  Ligand Polar Desolv:            15.813571
########## Ligand Apolar Desolv:            -3.683562
##########      Internal Energy:             0.000000
##########      Receptor Energy:             0.000000
########## Receptor Desolvation:             0.000000
########## Receptor Hydrophobic:             0.000000
##########         Total Energy:           -68.759644
##########        Ligand Charge:             1.000000
##########            Arbitrary:    +999.9990
##########        Ligand Energy:             0.000000

@<TRIPOS>MOLECULE
 ZINC000185084297      none
   44    47     0     0     0



@<TRIPOS>ATOM
      1 C1        -16.3963    16.3212   -19.3373 C.3        1  LIG1  -0.1900
      2 C2        -17.0605    17.0469   -18.1654 C.3        1  LIG1   0.1400
      3 H1        -17.1476    18.1083   -18.3977 H          1  LIG1   0.1800
      4 N1        -18.3980    16.4843   -17.9358 N.4        1  LIG1  -0.5000
      5 H2        -18.3172    15.5019   -17.7208 H          1  LIG1   0.4400
      6 H3        -18.8359    16.9629   -17.1630 H          1  LIG1   0.4400
      7 C3        -19.2152    16.6556   -19.1443 C.3        1  LIG1   0.0300
      8 H4        -18.7600    16.1458   -19.9933 H          1  LIG1   0.1700
      9 C4        -19.4300    18.1524   -19.4538 C.3        1  LIG1  -0.1000
     10 C5        -20.8323    18.2435   -20.0163 C.ar       1  LIG1  -0.0900
     11 C6        -21.4434    19.2499   -20.7446 C.ar       1  LIG1  -0.1000
     12 C7        -22.7543    19.1113   -21.1580 C.ar       1  LIG1  -0.0900
     13 C8        -23.4588    17.9643   -20.8441 C.ar       1  LIG1  -0.1100
     14 C9        -22.8509    16.9590   -20.1175 C.ar       1  LIG1  -0.0800
     15 C10       -21.5371    17.0961   -19.7022 C.ar       1  LIG1  -0.1500
     16 C11       -20.6548    16.1512   -18.9090 C.3        1  LIG1   0.1400
     17 H5        -20.7662    15.1312   -19.2770 H          1  LIG1   0.1000
     18 O1        -20.9833    16.2149   -17.5197 O.3        1  LIG1  -0.5700
     19 C12       -16.2220    16.8713   -16.9256 C.2        1  LIG1   0.1100
     20 N2        -15.9069    15.7358   -16.3538 N.2        1  LIG1  -0.4200
     21 C13       -15.1496    16.0661   -15.2834 C.2        1  LIG1   0.2400
     22 C14       -14.5443    15.1249   -14.3083 C.ar       1  LIG1  -0.0200
     23 C15       -15.0424    13.8297   -14.1854 C.ar       1  LIG1  -0.0800
     24 C16       -14.4764    12.9573   -13.2776 C.ar       1  LIG1  -0.0900
     25 C17       -13.4162    13.3659   -12.4899 C.ar       1  LIG1  -0.1200
     26 C18       -12.9163    14.6529   -12.6067 C.ar       1  LIG1   0.1100
     27 F1        -11.8801    15.0471   -11.8345 F          1  LIG1  -0.1300
     28 C19       -13.4725    15.5322   -13.5168 C.ar       1  LIG1  -0.1200
     29 N3        -15.0503    17.3699   -15.2681 N.2        1  LIG1  -0.3400
     30 O2        -15.6552    17.8448   -16.2060 O.3        1  LIG1   0.1000
     31 H6        -16.3092    15.2598   -19.1051 H          1  LIG1   0.1000
     32 H7        -17.0027    16.4484   -20.2340 H          1  LIG1   0.1100
     33 H8        -15.4039    16.7385   -19.5075 H          1  LIG1   0.1200
     34 H9        -19.3495    18.7427   -18.5410 H          1  LIG1   0.1000
     35 H10       -18.7037    18.4941   -20.1914 H          1  LIG1   0.1100
     36 H11       -20.8936    20.1466   -20.9900 H          1  LIG1   0.1300
     37 H12       -23.2282    19.8984   -21.7256 H          1  LIG1   0.1400
     38 H13       -24.4837    17.8544   -21.1661 H          1  LIG1   0.1400
     39 H14       -23.4021    16.0632   -19.8723 H          1  LIG1   0.1300
     40 H15       -20.4069    15.6824   -16.9545 H          1  LIG1   0.4200
     41 H16       -15.8708    13.5086   -14.7996 H          1  LIG1   0.1400
     42 H17       -14.8628    11.9533   -13.1821 H          1  LIG1   0.1500
     43 H18       -12.9765    12.6800   -11.7810 H          1  LIG1   0.1500
     44 H19       -13.0829    16.5352   -13.6080 H          1  LIG1   0.1400
@<TRIPOS>BOND
     1    1    2 1
     2    1   31 1
     3    1   32 1
     4    1   33 1
     5    2    3 1
     6    2    4 1
     7    2   19 1
     8    4    5 1
     9    4    6 1
    10    4    7 1
    11    7    8 1
    12    7   16 1
    13    7    9 1
    14    9   10 1
    15    9   34 1
    16    9   35 1
    17   10   15 ar
    18   10   11 ar
    19   11   12 ar
    20   11   36 1
    21   12   13 ar
    22   12   37 1
    23   13   14 ar
    24   13   38 1
    25   14   15 ar
    26   14   39 1
    27   15   16 1
    28   16   17 1
    29   16   18 1
    30   18   40 1
    31   19   30 1
    32   19   20 2
    33   20   21 1
    34   21   22 1
    35   21   29 2
    36   22   28 ar
    37   22   23 ar
    38   23   24 ar
    39   23   41 1
    40   24   25 ar
    41   24   42 1
    42   25   26 ar
    43   25   43 1
    44   26   27 1
    45   26   28 ar
    46   28   44 1
    47   29   30 1
##########                 Name:     ZINC000251658325
##########          Protonation:                 none
##########               SMILES:   CC[C@H](C)C[N@H+](CC)[C@H](C)C(=O)NC1=CC=CC(C#N)=C1
##########            Long Name:   NO_LONG_NAME
##########          FlexRecCode: 1
##########               Number:                 6719
##########   Ligand Source File: /nfs/db/export/3D/CG/EDRO/CGEDRO.xcy.db2.gz
##########                 Rank:                    1
##########               Setnum:                   85
##########             Matchnum:                    1
##########                Cloud:                    1
##########        Electrostatic:           -49.638638
##########                 Gist:             0.000000
##########        Van der Waals:           -28.434732
##########  Ligand Polar Desolv:            16.048672
########## Ligand Apolar Desolv:            -5.249391
##########      Internal Energy:             0.000000
##########      Receptor Energy:             0.000000
########## Receptor Desolvation:             0.000000
########## Receptor Hydrophobic:             0.000000
##########         Total Energy:           -67.274094
##########        Ligand Charge:             1.000000
##########            Arbitrary:    +999.9990
##########        Ligand Energy:             0.000000

@<TRIPOS>MOLECULE
 ZINC000251658325      none
   47    47     0     0     0



@<TRIPOS>ATOM
      1 C1        -22.3387    16.9941   -17.6453 C.3        1  LIG1  -0.1600
      2 C2        -20.9571    16.4900   -18.0667 C.3        1  LIG1  -0.1200
      3 C3        -20.1462    17.6502   -18.6473 C.3        1  LIG1  -0.1100
      4 H1        -20.0342    18.4288   -17.8928 H          1  LIG1   0.0900
      5 C4        -20.8742    18.2220   -19.8657 C.3        1  LIG1  -0.1700
      6 C5        -18.7645    17.1462   -19.0691 C.3        1  LIG1  -0.0200
      7 N1        -18.0656    16.5973   -17.8995 N.4        1  LIG1  -0.3700
      8 H2        -18.6001    15.8321   -17.5165 H          1  LIG1   0.4300
      9 C6        -17.9145    17.6464   -16.8825 C.3        1  LIG1  -0.0300
     10 C7        -17.1036    18.8068   -17.4630 C.3        1  LIG1  -0.1900
     11 C8        -16.7389    16.1134   -18.3045 C.3        1  LIG1   0.0000
     12 H3        -16.1613    16.9401   -18.7181 H          1  LIG1   0.1700
     13 C9        -16.8961    15.0207   -19.3638 C.3        1  LIG1  -0.1800
     14 C10       -16.0218    15.5503   -17.1047 C.2        1  LIG1   0.5100
     15 O1        -14.9661    16.0299   -16.7488 O.2        1  LIG1  -0.5100
     16 N2        -16.5535    14.5137   -16.4269 N.am       1  LIG1  -0.6400
     17 C11       -15.8877    13.9908   -15.3127 C.ar       1  LIG1   0.1200
     18 C12       -16.0187    12.6446   -14.9935 C.ar       1  LIG1  -0.1000
     19 C13       -15.3627    12.1227   -13.8941 C.ar       1  LIG1  -0.0900
     20 C14       -14.5733    12.9348   -13.1062 C.ar       1  LIG1  -0.0700
     21 C15       -14.4348    14.2893   -13.4182 C.ar       1  LIG1   0.0000
     22 C16       -13.6158    15.1345   -12.6025 C.1        1  LIG1   0.2400
     23 N3        -12.9661    15.8050   -11.9555 N.1        1  LIG1  -0.3900
     24 C17       -15.0927    14.8144   -14.5307 C.ar       1  LIG1  -0.0700
     25 H4        -22.9166    16.1676   -17.2316 H          1  LIG1   0.0600
     26 H5        -22.2268    17.7727   -16.8907 H          1  LIG1   0.0600
     27 H6        -22.8573    17.4013   -18.5133 H          1  LIG1   0.0700
     28 H7        -20.4385    16.0828   -17.1987 H          1  LIG1   0.0700
     29 H8        -21.0690    15.7114   -18.8214 H          1  LIG1   0.0800
     30 H9        -20.2965    19.0485   -20.2793 H          1  LIG1   0.0700
     31 H10       -20.9863    17.4435   -20.6203 H          1  LIG1   0.0800
     32 H11       -21.8585    18.5811   -19.5652 H          1  LIG1   0.0700
     33 H12       -18.8767    16.3678   -19.8238 H          1  LIG1   0.1400
     34 H13       -18.1869    17.9728   -19.4828 H          1  LIG1   0.1400
     35 H14       -18.8988    18.0056   -16.5820 H          1  LIG1   0.1400
     36 H15       -17.3959    17.2392   -16.0146 H          1  LIG1   0.1400
     37 H16       -16.9916    19.5853   -16.7084 H          1  LIG1   0.1100
     38 H17       -16.1194    18.4477   -17.7636 H          1  LIG1   0.0700
     39 H18       -17.6224    19.2140   -18.3310 H          1  LIG1   0.0900
     40 H19       -15.9119    14.6616   -19.6644 H          1  LIG1   0.0900
     41 H20       -17.4740    14.1941   -18.9502 H          1  LIG1   0.1000
     42 H21       -17.4149    15.4281   -20.2316 H          1  LIG1   0.1100
     43 H22       -17.3979    14.1302   -16.7115 H          1  LIG1   0.4200
     44 H23       -16.6355    12.0040   -15.6063 H          1  LIG1   0.1400
     45 H24       -15.4688    11.0758   -13.6511 H          1  LIG1   0.1500
     46 H25       -14.0627    12.5234   -12.2480 H          1  LIG1   0.1400
     47 H26       -14.9894    15.8607   -14.7774 H          1  LIG1   0.1400
@<TRIPOS>BOND
     1    1    2 1
     2    1   25 1
     3    1   26 1
     4    1   27 1
     5    2    3 1
     6    2   28 1
     7    2   29 1
     8    3    4 1
     9    3    5 1
    10    3    6 1
    11    5   30 1
    12    5   31 1
    13    5   32 1
    14    6    7 1
    15    6   33 1
    16    6   34 1
    17    7    8 1
    18    7    9 1
    19    7   11 1
    20    9   10 1
    21    9   35 1
    22    9   36 1
    23   10   37 1
    24   10   38 1
    25   10   39 1
    26   11   12 1
    27   11   13 1
    28   11   14 1
    29   13   40 1
    30   13   41 1
    31   13   42 1
    32   14   15 2
    33   14   16 am
    34   16   17 1
    35   16   43 1
    36   17   24 ar
    37   17   18 ar
    38   18   19 ar
    39   18   44 1
    40   19   20 ar
    41   19   45 1
    42   20   21 ar
    43   20   46 1
    44   21   22 1
    45   21   24 ar
    46   22   23 3
    47   24   47 1
##########                 Name:     ZINC000026473483
##########          Protonation:                 none
##########               SMILES:   C[C@@H]1CCC[C@H]([N@H+](C)CC(=O)NC2=CC3=C(C=C2[N+](=O)[O-])OCO3)C1
##########            Long Name:   NO_LONG_NAME
##########          FlexRecCode: 1
##########               Number:                 7191
##########   Ligand Source File: /nfs/db/export/3D/EF/BDRO/EFBDRO.xal.db2.gz
##########                 Rank:                    1
##########               Setnum:                   83
##########             Matchnum:                    1
##########                Cloud:                    1
##########        Electrostatic:           -39.930573
##########                 Gist:             0.000000
##########        Van der Waals:           -35.224365
##########  Ligand Polar Desolv:            15.799220
########## Ligand Apolar Desolv:            -4.778526
##########      Internal Energy:             0.000000
##########      Receptor Energy:             0.000000
########## Receptor Desolvation:             0.000000
########## Receptor Hydrophobic:             0.000000
##########         Total Energy:           -64.134247
##########        Ligand Charge:             1.000000
##########            Arbitrary:    +999.9990
##########        Ligand Energy:             0.000000

@<TRIPOS>MOLECULE
 ZINC000026473483      none
   49    51     0     0     0



@<TRIPOS>ATOM
      1 C1        -22.9662    17.9409   -19.1926 C.3        1  LIG1  -0.1500
      2 C2        -21.4722    18.2026   -19.3930 C.3        1  LIG1  -0.0800
      3 H1        -21.2501    19.2423   -19.1528 H          1  LIG1   0.0800
      4 C3        -21.0967    17.9244   -20.8499 C.3        1  LIG1  -0.1300
      5 C4        -19.6026    18.1862   -21.0503 C.3        1  LIG1  -0.1200
      6 C5        -18.7960    17.2667   -20.1313 C.3        1  LIG1  -0.1400
      7 C6        -19.1715    17.5450   -18.6743 C.3        1  LIG1   0.0200
      8 H2        -18.9493    18.5847   -18.4341 H          1  LIG1   0.1400
      9 N1        -18.3970    16.6622   -17.7919 N.4        1  LIG1  -0.3700
     10 H3        -18.8231    15.7476   -17.7729 H          1  LIG1   0.4300
     11 C7        -18.3779    17.2217   -16.4339 C.3        1  LIG1  -0.0600
     12 C8        -17.0215    16.5511   -18.2952 C.3        1  LIG1  -0.0300
     13 C9        -16.1168    16.0809   -17.1853 C.2        1  LIG1   0.5100
     14 O1        -15.1857    16.7713   -16.8280 O.2        1  LIG1  -0.5100
     15 N2        -16.3424    14.8931   -16.5897 N.am       1  LIG1  -0.6400
     16 C10       -15.5016    14.4559   -15.5579 C.ar       1  LIG1   0.2200
     17 C11       -14.8823    15.3806   -14.7284 C.ar       1  LIG1  -0.1100
     18 C12       -14.0511    14.9478   -13.7086 C.ar       1  LIG1   0.1200
     19 C13       -13.8384    13.5847   -13.5178 C.ar       1  LIG1   0.0400
     20 C14       -14.4580    12.6650   -14.3484 C.ar       1  LIG1  -0.0200
     21 C15       -15.2921    13.0975   -15.3615 C.ar       1  LIG1  -0.0600
     22 N3        -15.9527    12.1120   -16.2467 N.pl3      1  LIG1   0.0400
     23 O2        -16.6796    12.4929   -17.1467 O.2        1  LIG1  -0.1200
     24 O3        -15.7695    10.9202   -16.0750 O.2        1  LIG1  -0.1800
     25 O4        -12.9892    13.4199   -12.4606 O.3        1  LIG1  -0.2900
     26 C16       -12.3641    14.7023   -12.2664 C.3        1  LIG1   0.2100
     27 O5        -13.3359    15.6366   -12.7718 O.3        1  LIG1  -0.2900
     28 C17       -20.6656    17.2831   -18.4739 C.3        1  LIG1  -0.1400
     29 H4        -23.1884    16.9011   -19.4328 H          1  LIG1   0.0600
     30 H5        -23.2339    18.1390   -18.1546 H          1  LIG1   0.0700
     31 H6        -23.5411    18.5957   -19.8474 H          1  LIG1   0.0600
     32 H7        -21.3189    16.8847   -21.0902 H          1  LIG1   0.0700
     33 H8        -21.6714    18.5794   -21.5047 H          1  LIG1   0.0800
     34 H9        -19.3351    17.9879   -22.0883 H          1  LIG1   0.0900
     35 H10       -19.3805    19.2260   -20.8101 H          1  LIG1   0.0800
     36 H11       -19.0181    16.2270   -20.3715 H          1  LIG1   0.0900
     37 H12       -17.7316    17.4531   -20.2741 H          1  LIG1   0.0900
     38 H13       -17.8032    16.5666   -15.7790 H          1  LIG1   0.1300
     39 H14       -17.9177    18.2095   -16.4543 H          1  LIG1   0.1400
     40 H15       -19.3986    17.3039   -16.0603 H          1  LIG1   0.1200
     41 H16       -16.9916    15.8348   -19.1163 H          1  LIG1   0.1700
     42 H17       -16.6847    17.5251   -18.6503 H          1  LIG1   0.1700
     43 H18       -17.0871    14.3409   -16.8754 H          1  LIG1   0.4400
     44 H19       -15.0483    16.4372   -14.8783 H          1  LIG1   0.1800
     45 H20       -14.2927    11.6080   -14.2005 H          1  LIG1   0.1800
     46 H21       -12.1762    14.8804   -11.2075 H          1  LIG1   0.1500
     47 H22       -11.4376    14.7671   -12.8370 H          1  LIG1   0.1000
     48 H23       -20.9331    17.4814   -17.4361 H          1  LIG1   0.0900
     49 H24       -20.8877    16.2435   -18.7142 H          1  LIG1   0.0900
@<TRIPOS>BOND
     1    1    2 1
     2    1   29 1
     3    1   30 1
     4    1   31 1
     5    2    3 1
     6    2   28 1
     7    2    4 1
     8    4    5 1
     9    4   32 1
    10    4   33 1
    11    5    6 1
    12    5   34 1
    13    5   35 1
    14    6    7 1
    15    6   36 1
    16    6   37 1
    17    7    8 1
    18    7    9 1
    19    7   28 1
    20    9   10 1
    21    9   11 1
    22    9   12 1
    23   11   38 1
    24   11   39 1
    25   11   40 1
    26   12   13 1
    27   12   41 1
    28   12   42 1
    29   13   14 2
    30   13   15 am
    31   15   16 1
    32   15   43 1
    33   16   21 ar
    34   16   17 ar
    35   17   18 ar
    36   17   44 1
    37   18   27 1
    38   18   19 ar
    39   19   20 ar
    40   19   25 1
    41   20   21 ar
    42   20   45 1
    43   21   22 1
    44   22   23 2
    45   22   24 2
    46   25   26 1
    47   26   27 1
    48   26   46 1
    49   26   47 1
    50   28   48 1
    51   28   49 1
##########                 Name:     ZINC000547642529
##########          Protonation:                 none
##########               SMILES:   ClC1=CC=C(N2C=C(C[NH2+][C@@H]3CCN4C=CN=C4C3)N=N2)C(Cl)=C1
##########            Long Name:   NO_LONG_NAME
##########          FlexRecCode: 1
##########               Number:                 8315
##########   Ligand Source File: /nfs/db/export/3D/FF/ADRO/FFADRO.xbgv.db2.gz
##########                 Rank:                    1
##########               Setnum:                  185
##########             Matchnum:                    1
##########                Cloud:                    1
##########        Electrostatic:           -49.017902
##########                 Gist:             0.000000
##########        Van der Waals:           -34.351948
##########  Ligand Polar Desolv:            21.188379
########## Ligand Apolar Desolv:            -5.580489
##########      Internal Energy:             0.000000
##########      Receptor Energy:             0.000000
########## Receptor Desolvation:             0.000000
########## Receptor Hydrophobic:             0.000000
##########         Total Energy:           -67.761963
##########        Ligand Charge:             1.000000
##########            Arbitrary:    +999.9990
##########        Ligand Energy:             0.000000

@<TRIPOS>MOLECULE
 ZINC000547642529      none
   41    44     0     0     0



@<TRIPOS>ATOM
      1 Cl1       -14.3539    10.2944   -11.8859 Cl         1  LIG1  -0.0200
      2 C1        -14.6408    11.7384   -12.8059 C.ar       1  LIG1   0.0000
      3 C2        -15.4609    11.6963   -13.9194 C.ar       1  LIG1  -0.0900
      4 C3        -15.6911    12.8437   -14.6535 C.ar       1  LIG1  -0.0700
      5 C4        -15.0991    14.0399   -14.2734 C.ar       1  LIG1   0.1000
      6 N1        -15.3318    15.2065   -15.0172 N.pl3      1  LIG1  -0.2300
      7 C5        -16.4643    15.4973   -15.7138 C.2        1  LIG1   0.0100
      8 C6        -16.2576    16.7120   -16.2744 C.2        1  LIG1  -0.1000
      9 C7        -17.2190    17.4777   -17.1463 C.3        1  LIG1   0.1000
     10 N2        -17.8072    16.5706   -18.1409 N.4        1  LIG1  -0.5000
     11 H1        -17.0745    16.1777   -18.7126 H          1  LIG1   0.4300
     12 H2        -18.3002    15.8276   -17.6684 H          1  LIG1   0.4400
     13 C8        -18.7444    17.3171   -18.9908 C.3        1  LIG1   0.0200
     14 H3        -19.3112    18.0186   -18.3787 H          1  LIG1   0.1500
     15 C9        -19.7065    16.3397   -19.6723 C.3        1  LIG1  -0.1600
     16 C10       -20.8246    17.1236   -20.3681 C.3        1  LIG1   0.1100
     17 N3        -20.2217    18.1688   -21.1986 N.pl3      1  LIG1  -0.4600
     18 C11       -20.8044    18.8698   -22.2121 C.2        1  LIG1  -0.0300
     19 C12       -19.8692    19.7197   -22.6826 C.2        1  LIG1  -0.0200
     20 N4        -18.7452    19.5383   -21.9706 N.2        1  LIG1  -0.4600
     21 C13       -18.9477    18.6121   -21.0798 C.2        1  LIG1   0.1800
     22 C14       -17.9623    18.0877   -20.0620 C.3        1  LIG1  -0.0400
     23 N5        -15.0326    17.0997   -15.9020 N.2        1  LIG1  -0.2300
     24 N6        -14.5135    16.1906   -15.1550 N.2        1  LIG1  -0.0300
     25 C15       -14.2758    14.0803   -13.1548 C.ar       1  LIG1   0.0000
     26 Cl2       -13.5332    15.5746   -12.6760 Cl         1  LIG1  -0.0200
     27 C16       -14.0534    12.9308   -12.4207 C.ar       1  LIG1  -0.0900
     28 H4        -15.9212    10.7652   -14.2154 H          1  LIG1   0.1600
     29 H5        -16.3311    12.8098   -15.5228 H          1  LIG1   0.1600
     30 H6        -17.3485    14.8832   -15.8019 H          1  LIG1   0.2100
     31 H7        -18.0106    17.9022   -16.5288 H          1  LIG1   0.1500
     32 H8        -16.6865    18.2803   -17.6566 H          1  LIG1   0.1500
     33 H9        -19.1629    15.7499   -20.4103 H          1  LIG1   0.1000
     34 H10       -20.1398    15.6755   -18.9243 H          1  LIG1   0.1200
     35 H11       -21.4078    16.4494   -20.9955 H          1  LIG1   0.1100
     36 H12       -21.4716    17.5801   -19.6189 H          1  LIG1   0.1000
     37 H13       -21.8183    18.7647   -22.5691 H          1  LIG1   0.1900
     38 H14       -20.0010    20.4233   -23.4914 H          1  LIG1   0.1800
     39 H15       -17.4309    18.9205   -19.6015 H          1  LIG1   0.1200
     40 H16       -17.2506    17.4207   -20.5487 H          1  LIG1   0.1100
     41 H17       -13.4137    12.9611   -11.5511 H          1  LIG1   0.1700
@<TRIPOS>BOND
     1    1    2 1
     2    2   27 ar
     3    2    3 ar
     4    3    4 ar
     5    3   28 1
     6    4    5 ar
     7    4   29 1
     8    5    6 1
     9    5   25 ar
    10    6   24 1
    11    6    7 1
    12    7    8 2
    13    7   30 1
    14    8    9 1
    15    8   23 1
    16    9   10 1
    17    9   31 1
    18    9   32 1
    19   10   11 1
    20   10   12 1
    21   10   13 1
    22   13   14 1
    23   13   22 1
    24   13   15 1
    25   15   16 1
    26   15   33 1
    27   15   34 1
    28   16   17 1
    29   16   35 1
    30   16   36 1
    31   17   21 1
    32   17   18 1
    33   18   19 2
    34   18   37 1
    35   19   20 1
    36   19   38 1
    37   20   21 2
    38   21   22 1
    39   22   39 1
    40   22   40 1
    41   23   24 2
    42   25   26 1
    43   25   27 ar
    44   27   41 1
##########                 Name:     ZINC000337655505
##########          Protonation:                 none
##########               SMILES:   C[NH+](C)CC(=O)NC1=CC(C2=CSC=C2)=NN1C1=CC=CC=C1
##########            Long Name:   NO_LONG_NAME
##########          FlexRecCode: 1
##########               Number:                 8939
##########   Ligand Source File: /nfs/db/export/3D/EG/ADMO/EGADMO.xbaa.db2.gz
##########                 Rank:                    1
##########               Setnum:                   68
##########             Matchnum:                    1
##########                Cloud:                    1
##########        Electrostatic:           -47.005474
##########                 Gist:             0.000000
##########        Van der Waals:           -32.560925
##########  Ligand Polar Desolv:            21.212391
########## Ligand Apolar Desolv:            -5.650832
##########      Internal Energy:             0.000000
##########      Receptor Energy:             0.000000
########## Receptor Desolvation:             0.000000
########## Receptor Hydrophobic:             0.000000
##########         Total Energy:           -64.004837
##########        Ligand Charge:             1.000000
##########            Arbitrary:    +999.9990
##########        Ligand Energy:             0.000000

@<TRIPOS>MOLECULE
 ZINC000337655505      none
   42    44     0     0     0



@<TRIPOS>ATOM
      1 C1        -20.4482    16.1405   -19.0267 C.3        1  LIG1  -0.0500
      2 N1        -19.0912    16.4424   -18.5519 N.4        1  LIG1  -0.3700
      3 H1        -18.8607    15.8323   -17.7820 H          1  LIG1   0.4400
      4 C2        -18.1323    16.2345   -19.6451 C.3        1  LIG1  -0.0600
      5 C3        -19.0287    17.8403   -18.1047 C.3        1  LIG1  -0.0300
      6 C4        -17.6366    18.1501   -17.6176 C.2        1  LIG1   0.5100
      7 O1        -16.9877    19.0246   -18.1516 O.2        1  LIG1  -0.4900
      8 N2        -17.1126    17.4552   -16.5886 N.am       1  LIG1  -0.6200
      9 C5        -15.8244    17.7418   -16.1378 C.2        1  LIG1   0.2900
     10 C6        -15.2106    18.9533   -16.1813 C.2        1  LIG1  -0.2400
     11 C7        -13.9252    18.8048   -15.6272 C.2        1  LIG1   0.1600
     12 C8        -12.9130    19.8799   -15.4767 C.2        1  LIG1  -0.0400
     13 C9        -13.1354    21.1489   -15.8645 C.2        1  LIG1  -0.1900
     14 S1        -11.7125    22.1253   -15.5263 S.3        1  LIG1   0.1400
     15 C10       -10.8708    20.7321   -14.8619 C.2        1  LIG1  -0.2100
     16 C11       -11.6562    19.6592   -14.9168 C.2        1  LIG1  -0.1200
     17 N3        -13.7761    17.5480   -15.2650 N.2        1  LIG1  -0.2500
     18 N4        -14.9570    16.8591   -15.5692 N.pl3      1  LIG1  -0.3300
     19 C12       -15.1998    15.4991   -15.3378 C.ar       1  LIG1   0.1400
     20 C13       -14.5961    14.8572   -14.2646 C.ar       1  LIG1  -0.1500
     21 C14       -14.8379    13.5163   -14.0389 C.ar       1  LIG1  -0.0900
     22 C15       -15.6800    12.8129   -14.8805 C.ar       1  LIG1  -0.1100
     23 C16       -16.2828    13.4492   -15.9501 C.ar       1  LIG1  -0.0900
     24 C17       -16.0495    14.7913   -16.1778 C.ar       1  LIG1  -0.1000
     25 H2        -20.6972    16.7995   -19.8584 H          1  LIG1   0.1300
     26 H3        -20.4946    15.1032   -19.3586 H          1  LIG1   0.1300
     27 H4        -21.1597    16.2946   -18.2156 H          1  LIG1   0.1300
     28 H5        -17.1254    16.4586   -19.2929 H          1  LIG1   0.1300
     29 H6        -18.1788    15.1973   -19.9769 H          1  LIG1   0.1200
     30 H7        -18.3812    16.8937   -20.4769 H          1  LIG1   0.1400
     31 H8        -19.2775    18.4994   -18.9365 H          1  LIG1   0.1700
     32 H9        -19.7401    17.9946   -17.2936 H          1  LIG1   0.1700
     33 H10       -17.6314    16.7557   -16.1615 H          1  LIG1   0.4200
     34 H11       -15.6335    19.8671   -16.5718 H          1  LIG1   0.1800
     35 H12       -14.0476    21.5119   -16.3143 H          1  LIG1   0.1700
     36 H13        -9.8665    20.7457   -14.4646 H          1  LIG1   0.1700
     37 H14       -11.3409    18.6895   -14.5609 H          1  LIG1   0.1500
     38 H15       -13.9378    15.4059   -13.6074 H          1  LIG1   0.1200
     39 H16       -14.3687    13.0166   -13.2044 H          1  LIG1   0.1400
     40 H17       -15.8669    11.7642   -14.7024 H          1  LIG1   0.1400
     41 H18       -16.9396    12.8970   -16.6060 H          1  LIG1   0.1400
     42 H19       -16.5205    15.2877   -17.0134 H          1  LIG1   0.1400
@<TRIPOS>BOND
     1    1    2 1
     2    1   25 1
     3    1   26 1
     4    1   27 1
     5    2    3 1
     6    2    4 1
     7    2    5 1
     8    4   28 1
     9    4   29 1
    10    4   30 1
    11    5    6 1
    12    5   31 1
    13    5   32 1
    14    6    7 2
    15    6    8 am
    16    8    9 1
    17    8   33 1
    18    9   18 1
    19    9   10 2
    20   10   11 1
    21   10   34 1
    22   11   12 1
    23   11   17 2
    24   12   16 1
    25   12   13 2
    26   13   14 1
    27   13   35 1
    28   14   15 1
    29   15   16 2
    30   15   36 1
    31   16   37 1
    32   17   18 1
    33   18   19 1
    34   19   24 ar
    35   19   20 ar
    36   20   21 ar
    37   20   38 1
    38   21   22 ar
    39   21   39 1
    40   22   23 ar
    41   22   40 1
    42   23   24 ar
    43   23   41 1
    44   24   42 1
##########                 Name:     ZINC000573216829
##########          Protonation:                 none
##########               SMILES:   CN1C(=O)C(C[N@H+]2CC[C@@H]2CC2=CC=CC=C2)=CC2=CC=CC=C21
##########            Long Name:   NO_LONG_NAME
##########          FlexRecCode: 1
##########               Number:                 5685
##########   Ligand Source File: /nfs/db/export/3D/DG/ADMO/DGADMO.xbct.db2.gz
##########                 Rank:                    1
##########               Setnum:                   16
##########             Matchnum:                    1
##########                Cloud:                    1
##########        Electrostatic:           -39.747314
##########                 Gist:             0.000000
##########        Van der Waals:           -35.790237
##########  Ligand Polar Desolv:            13.776985
########## Ligand Apolar Desolv:            -7.097832
##########      Internal Energy:             0.000000
##########      Receptor Energy:             0.000000
########## Receptor Desolvation:             0.000000
########## Receptor Hydrophobic:             0.000000
##########         Total Energy:           -68.858398
##########        Ligand Charge:             1.000000
##########            Arbitrary:    +999.9990
##########        Ligand Energy:             0.000000

@<TRIPOS>MOLECULE
 ZINC000573216829      none
   47    50     0     0     0



@<TRIPOS>ATOM
      1 C1        -12.8892    15.5263   -13.0543 C.3        1  LIG1   0.0600
      2 N1        -13.9455    15.0136   -13.9306 N.am       1  LIG1  -0.5100
      3 C2        -14.3869    15.7715   -14.9497 C.2        1  LIG1   0.5400
      4 O1        -13.8981    16.8740   -15.1253 O.2        1  LIG1  -0.5400
      5 C3        -15.4018    15.3220   -15.8215 C.2        1  LIG1  -0.2700
      6 C4        -15.8657    16.2045   -16.9516 C.3        1  LIG1   0.0700
      7 N2        -17.3336    16.1964   -17.0084 N.4        1  LIG1  -0.4100
      8 H1        -17.7163    15.2755   -17.1612 H          1  LIG1   0.4300
      9 C5        -17.9677    16.9168   -15.8886 C.3        1  LIG1   0.0100
     10 C6        -19.0150    17.4318   -16.8859 C.3        1  LIG1  -0.1600
     11 C7        -17.8911    17.2204   -17.9117 C.3        1  LIG1   0.0400
     12 H2        -17.2449    18.0898   -18.0331 H          1  LIG1   0.1600
     13 C8        -18.3824    16.6573   -19.2467 C.3        1  LIG1  -0.0900
     14 C9        -19.1659    17.7151   -19.9802 C.ar       1  LIG1  -0.1200
     15 C10       -20.5298    17.8263   -19.7832 C.ar       1  LIG1  -0.1100
     16 C11       -21.2485    18.7967   -20.4560 C.ar       1  LIG1  -0.1100
     17 C12       -20.6034    19.6561   -21.3257 C.ar       1  LIG1  -0.1100
     18 C13       -19.2395    19.5454   -21.5221 C.ar       1  LIG1  -0.1100
     19 C14       -18.5201    18.5779   -20.8459 C.ar       1  LIG1  -0.1300
     20 C15       -15.9608    14.0992   -15.6461 C.2        1  LIG1   0.0600
     21 C16       -15.4876    13.2662   -14.5389 C.ar       1  LIG1  -0.1600
     22 C17       -16.0253    11.9960   -14.3081 C.ar       1  LIG1  -0.0400
     23 C18       -15.5615    11.2432   -13.2664 C.ar       1  LIG1  -0.1500
     24 C19       -14.5612    11.7278   -12.4352 C.ar       1  LIG1  -0.0400
     25 C20       -14.0169    12.9771   -12.6437 C.ar       1  LIG1  -0.1700
     26 C21       -14.4686    13.7588   -13.7016 C.ar       1  LIG1   0.2000
     27 H3        -12.5988    16.5247   -13.3812 H          1  LIG1   0.0800
     28 H4        -13.2579    15.5725   -12.0295 H          1  LIG1   0.1000
     29 H5        -12.0253    14.8632   -13.1002 H          1  LIG1   0.0900
     30 H6        -15.5140    17.2227   -16.7854 H          1  LIG1   0.1400
     31 H7        -15.4636    15.8303   -17.8932 H          1  LIG1   0.1300
     32 H8        -18.3815    16.2566   -15.1265 H          1  LIG1   0.1300
     33 H9        -17.3423    17.7053   -15.4697 H          1  LIG1   0.1600
     34 H10       -19.8694    16.7681   -17.0183 H          1  LIG1   0.1200
     35 H11       -19.2960    18.4748   -16.7393 H          1  LIG1   0.1300
     36 H12       -17.5268    16.3548   -19.8504 H          1  LIG1   0.1000
     37 H13       -19.0214    15.7934   -19.0635 H          1  LIG1   0.1200
     38 H14       -21.0336    17.1549   -19.1038 H          1  LIG1   0.1300
     39 H15       -22.3139    18.8830   -20.3026 H          1  LIG1   0.1300
     40 H16       -21.1651    20.4137   -21.8518 H          1  LIG1   0.1300
     41 H17       -18.7356    20.2167   -22.2018 H          1  LIG1   0.1300
     42 H18       -17.4546    18.4915   -20.9993 H          1  LIG1   0.1200
     43 H19       -16.7382    13.7476   -16.3083 H          1  LIG1   0.1500
     44 H20       -16.8041    11.6119   -14.9502 H          1  LIG1   0.1400
     45 H21       -15.9772    10.2625   -13.0881 H          1  LIG1   0.1400
     46 H22       -14.2059    11.1201   -11.6163 H          1  LIG1   0.1400
     47 H23       -13.2395    13.3455   -11.9907 H          1  LIG1   0.1400
@<TRIPOS>BOND
     1    1    2 1
     2    1   27 1
     3    1   28 1
     4    1   29 1
     5    2   26 1
     6    2    3 am
     7    3    4 2
     8    3    5 1
     9    5    6 1
    10    5   20 2
    11    6    7 1
    12    6   30 1
    13    6   31 1
    14    7    8 1
    15    7   11 1
    16    7    9 1
    17    9   10 1
    18    9   32 1
    19    9   33 1
    20   10   11 1
    21   10   34 1
    22   10   35 1
    23   11   12 1
    24   11   13 1
    25   13   14 1
    26   13   36 1
    27   13   37 1
    28   14   19 ar
    29   14   15 ar
    30   15   16 ar
    31   15   38 1
    32   16   17 ar
    33   16   39 1
    34   17   18 ar
    35   17   40 1
    36   18   19 ar
    37   18   41 1
    38   19   42 1
    39   20   21 1
    40   20   43 1
    41   21   26 ar
    42   21   22 ar
    43   22   23 ar
    44   22   44 1
    45   23   24 ar
    46   23   45 1
    47   24   25 ar
    48   24   46 1
    49   25   26 ar
    50   25   47 1
##########                 Name:     ZINC000413396487
##########          Protonation:                 none
##########               SMILES:   CC1=C2SC(NCC3([NH+]4CCOCC4)CCOCC3)=NC2=CC=C1
##########            Long Name:   NO_LONG_NAME
##########          FlexRecCode: 1
##########               Number:                 8725
##########   Ligand Source File: /nfs/db/export/3D/EE/ADMO/EEADMO.xapz.db2.gz
##########                 Rank:                    1
##########               Setnum:                   27
##########             Matchnum:                    1
##########                Cloud:                    1
##########        Electrostatic:           -44.959015
##########                 Gist:             0.000000
##########        Van der Waals:           -30.985596
##########  Ligand Polar Desolv:            15.197030
########## Ligand Apolar Desolv:            -4.120483
##########      Internal Energy:             0.000000
##########      Receptor Energy:             0.000000
########## Receptor Desolvation:             0.000000
########## Receptor Hydrophobic:             0.000000
##########         Total Energy:           -64.868065
##########        Ligand Charge:             1.000000
##########            Arbitrary:    +999.9990
##########        Ligand Energy:             0.000000

@<TRIPOS>MOLECULE
 ZINC000413396487      none
   50    53     0     0     0



@<TRIPOS>ATOM
      1 C1        -14.3827    11.5534   -12.6552 C.3        1  LIG1  -0.1200
      2 C2        -13.9834    12.9858   -12.9000 C.ar       1  LIG1  -0.0300
      3 C3        -14.7074    13.7643   -13.7988 C.ar       1  LIG1  -0.1800
      4 S1        -16.1126    13.3850   -14.7920 S.3        1  LIG1   0.0600
      5 C4        -16.1118    15.0187   -15.4416 C.2        1  LIG1   0.3500
      6 N1        -17.0150    15.4986   -16.3680 N.pl3      1  LIG1  -0.7100
      7 C5        -16.9163    16.8825   -16.8384 C.3        1  LIG1   0.1200
      8 C6        -17.4395    16.9719   -18.2734 C.3        1  LIG1   0.0400
      9 N2        -18.8447    16.5454   -18.3116 N.4        1  LIG1  -0.3800
     10 H1        -18.9161    15.5927   -17.9871 H          1  LIG1   0.4100
     11 C7        -19.3456    16.6322   -19.6903 C.3        1  LIG1  -0.0500
     12 C8        -20.8098    16.1870   -19.7276 C.3        1  LIG1   0.0400
     13 O1        -21.5743    17.0059   -18.8383 O.3        1  LIG1  -0.3500
     14 C9        -21.1095    16.9734   -17.4860 C.3        1  LIG1   0.0400
     15 C10       -19.6461    17.4199   -17.4443 C.3        1  LIG1  -0.0500
     16 C11       -17.3268    18.4162   -18.7709 C.3        1  LIG1  -0.1700
     17 C12       -15.8515    18.8239   -18.8003 C.3        1  LIG1   0.0600
     18 O2        -15.1258    17.9212   -19.6374 O.3        1  LIG1  -0.3600
     19 C13       -15.1562    16.5627   -19.1947 C.3        1  LIG1   0.0600
     20 C14       -16.6036    16.0642   -19.1810 C.3        1  LIG1  -0.1700
     21 N3        -15.1479    15.7045   -14.9298 N.2        1  LIG1  -0.5200
     22 C15       -14.3462    15.0943   -14.0341 C.ar       1  LIG1   0.1200
     23 C16       -13.2362    15.6204   -13.3407 C.ar       1  LIG1  -0.0800
     24 C17       -12.5335    14.8385   -12.4582 C.ar       1  LIG1  -0.0900
     25 C18       -12.9063    13.5225   -12.2296 C.ar       1  LIG1  -0.1100
     26 H2        -15.2493    11.3079   -13.2692 H          1  LIG1   0.0800
     27 H3        -13.5541    10.8954   -12.9166 H          1  LIG1   0.0600
     28 H4        -14.6338    11.4211   -11.6028 H          1  LIG1   0.0800
     29 H5        -17.7151    14.9196   -16.7077 H          1  LIG1   0.4100
     30 H6        -17.5118    17.5288   -16.1936 H          1  LIG1   0.1100
     31 H7        -15.8746    17.2021   -16.8109 H          1  LIG1   0.1000
     32 H8        -19.2696    17.6615   -20.0408 H          1  LIG1   0.1400
     33 H9        -18.7520    15.9836   -20.3345 H          1  LIG1   0.1400
     34 H10       -21.1963    16.2915   -20.7414 H          1  LIG1   0.1400
     35 H11       -20.8816    15.1452   -19.4155 H          1  LIG1   0.0800
     36 H12       -21.7131    17.6470   -16.8775 H          1  LIG1   0.1400
     37 H13       -21.1916    15.9585   -17.0970 H          1  LIG1   0.0800
     38 H14       -19.2754    17.3562   -16.4213 H          1  LIG1   0.1500
     39 H15       -19.5697    18.4489   -17.7955 H          1  LIG1   0.1500
     40 H16       -17.7451    18.4894   -19.7747 H          1  LIG1   0.1100
     41 H17       -17.8739    19.0768   -18.0982 H          1  LIG1   0.1000
     42 H18       -15.7619    19.8364   -19.1941 H          1  LIG1   0.1200
     43 H19       -15.4445    18.7894   -17.7898 H          1  LIG1   0.0700
     44 H20       -14.5658    15.9462   -19.8726 H          1  LIG1   0.1200
     45 H21       -14.7402    16.4987   -18.1893 H          1  LIG1   0.0700
     46 H22       -16.6335    15.0428   -18.8018 H          1  LIG1   0.1100
     47 H23       -17.0073    16.0899   -20.1932 H          1  LIG1   0.1100
     48 H24       -12.9371    16.6450   -13.5054 H          1  LIG1   0.1400
     49 H25       -11.6853    15.2533   -11.9340 H          1  LIG1   0.1400
     50 H26       -12.3467    12.9159   -11.5328 H          1  LIG1   0.1400
@<TRIPOS>BOND
     1    1    2 1
     2    1   26 1
     3    1   27 1
     4    1   28 1
     5    2   25 ar
     6    2    3 ar
     7    3   22 ar
     8    3    4 1
     9    4    5 1
    10    5    6 1
    11    5   21 2
    12    6    7 1
    13    6   29 1
    14    7    8 1
    15    7   30 1
    16    7   31 1
    17    8   20 1
    18    8    9 1
    19    8   16 1
    20    9   10 1
    21    9   15 1
    22    9   11 1
    23   11   12 1
    24   11   32 1
    25   11   33 1
    26   12   13 1
    27   12   34 1
    28   12   35 1
    29   13   14 1
    30   14   15 1
    31   14   36 1
    32   14   37 1
    33   15   38 1
    34   15   39 1
    35   16   17 1
    36   16   40 1
    37   16   41 1
    38   17   18 1
    39   17   42 1
    40   17   43 1
    41   18   19 1
    42   19   20 1
    43   19   44 1
    44   19   45 1
    45   20   46 1
    46   20   47 1
    47   21   22 1
    48   22   23 ar
    49   23   24 ar
    50   23   48 1
    51   24   25 ar
    52   24   49 1
    53   25   50 1
##########                 Name:     ZINC000291023493
##########          Protonation:                 none
##########               SMILES:   C[C@H](NC1=CC(N2C=CC=N2)=NC(N)=[NH+]1)[C@H](C1=CC=CC=C1)[NH+](C)C
##########            Long Name:   NO_LONG_NAME
##########          FlexRecCode: 1
##########               Number:                 6201
##########   Ligand Source File: /nfs/db/export/3D/EE/ADMP/EEADMP.xcc.db2.gz
##########                 Rank:                    1
##########               Setnum:                    2
##########             Matchnum:                    1
##########                Cloud:                    1
##########        Electrostatic:           -75.933563
##########                 Gist:             0.000000
##########        Van der Waals:           -30.388130
##########  Ligand Polar Desolv:            39.856529
########## Ligand Apolar Desolv:            -6.485028
##########      Internal Energy:             0.000000
##########      Receptor Energy:             0.000000
########## Receptor Desolvation:             0.000000
########## Receptor Hydrophobic:             0.000000
##########         Total Energy:           -72.950195
##########        Ligand Charge:             2.000000
##########            Arbitrary:    +999.9990
##########        Ligand Energy:             0.000000

@<TRIPOS>MOLECULE
 ZINC000291023493      none
   50    52     0     0     0



@<TRIPOS>ATOM
      1 C1        -18.1506    18.3668   -16.0492 C.3        1  LIG1  -0.2100
      2 C2        -17.7641    17.0551   -16.7352 C.3        1  LIG1   0.1300
      3 H1        -18.4209    16.2569   -16.3894 H          1  LIG1   0.1300
      4 N1        -16.3759    16.7223   -16.4055 N.pl3      1  LIG1  -0.6900
      5 C3        -16.0844    15.5363   -15.7504 C.ar       1  LIG1   0.5200
      6 C4        -14.9864    15.4526   -14.8965 C.ar       1  LIG1  -0.3100
      7 C5        -14.7333    14.2434   -14.2610 C.ar       1  LIG1   0.5700
      8 N2        -13.6449    14.1132   -13.3964 N.pl3      1  LIG1  -0.3400
      9 C6        -13.2879    12.9888   -12.7221 C.2        1  LIG1   0.0700
     10 C7        -12.1830    13.2793   -11.9983 C.2        1  LIG1  -0.2200
     11 C8        -11.8518    14.6188   -12.2341 C.2        1  LIG1   0.1200
     12 N3        -12.7221    15.1169   -13.0739 N.2        1  LIG1  -0.2900
     13 N4        -15.5414    13.2117   -14.4863 N.ar       1  LIG1  -0.5700
     14 C9        -16.5767    13.3261   -15.3046 C.ar       1  LIG1   0.6900
     15 N5        -17.3952    12.2298   -15.5133 N.pl3      1  LIG1  -0.7800
     16 N6        -16.8522    14.4639   -15.9239 N.ar       1  LIG1  -0.5900
     17 H2        -17.6184    14.5136   -16.5167 H          1  LIG1   0.4400
     18 C10       -17.9050    17.2112   -18.2507 C.3        1  LIG1   0.0700
     19 H3        -17.2480    18.0094   -18.5963 H          1  LIG1   0.1600
     20 C11       -19.3329    17.5535   -18.5898 C.ar       1  LIG1  -0.1600
     21 C12       -19.6140    18.3175   -19.7070 C.ar       1  LIG1  -0.1200
     22 C13       -20.9238    18.6313   -20.0180 C.ar       1  LIG1  -0.1000
     23 C14       -21.9525    18.1809   -19.2118 C.ar       1  LIG1  -0.0800
     24 C15       -21.6715    17.4162   -18.0952 C.ar       1  LIG1  -0.1000
     25 C16       -20.3620    17.0987   -17.7866 C.ar       1  LIG1  -0.1000
     26 N7        -17.5337    15.9517   -18.9092 N.4        1  LIG1  -0.3800
     27 H4        -17.8928    15.1744   -18.3754 H          1  LIG1   0.4300
     28 C17       -18.1030    15.9207   -20.2631 C.3        1  LIG1  -0.0500
     29 C18       -16.0701    15.8548   -18.9911 C.3        1  LIG1  -0.0600
     30 H5        -17.4938    19.1651   -16.3949 H          1  LIG1   0.0900
     31 H6        -19.1835    18.6144   -16.2944 H          1  LIG1   0.0800
     32 H7        -18.0504    18.2557   -14.9694 H          1  LIG1   0.1000
     33 H8        -15.6608    17.3321   -16.6458 H          1  LIG1   0.4200
     34 H9        -14.3470    16.3075   -14.7328 H          1  LIG1   0.1900
     35 H10       -13.7950    12.0358   -12.7573 H          1  LIG1   0.2000
     36 H11       -11.6499    12.5977   -11.3520 H          1  LIG1   0.1800
     37 H12       -11.0173    15.1494   -11.8000 H          1  LIG1   0.2100
     38 H13       -17.2072    11.3916   -15.0628 H          1  LIG1   0.4500
     39 H14       -18.1567    12.2998   -16.1099 H          1  LIG1   0.4300
     40 H15       -18.8102    18.6693   -20.3367 H          1  LIG1   0.1200
     41 H16       -21.1432    19.2288   -20.8904 H          1  LIG1   0.1400
     42 H17       -22.9757    18.4268   -19.4545 H          1  LIG1   0.1400
     43 H18       -22.4752    17.0646   -17.4652 H          1  LIG1   0.1400
     44 H19       -20.1424    16.5012   -16.9141 H          1  LIG1   0.1300
     45 H20       -17.8275    14.9862   -20.7518 H          1  LIG1   0.1300
     46 H21       -19.1889    15.9927   -20.2024 H          1  LIG1   0.1400
     47 H22       -17.7149    16.7604   -20.8397 H          1  LIG1   0.1300
     48 H23       -15.7947    14.9202   -19.4799 H          1  LIG1   0.1300
     49 H24       -15.6820    16.6945   -19.5677 H          1  LIG1   0.1400
     50 H25       -15.6477    15.8777   -17.9866 H          1  LIG1   0.1300
@<TRIPOS>BOND
     1    1    2 1
     2    1   30 1
     3    1   31 1
     4    1   32 1
     5    2    3 1
     6    2    4 1
     7    2   18 1
     8    4    5 1
     9    4   33 1
    10    5   16 ar
    11    5    6 ar
    12    6    7 ar
    13    6   34 1
    14    7    8 1
    15    7   13 ar
    16    8   12 1
    17    8    9 1
    18    9   10 2
    19    9   35 1
    20   10   11 1
    21   10   36 1
    22   11   12 2
    23   11   37 1
    24   13   14 ar
    25   14   15 1
    26   14   16 ar
    27   15   38 1
    28   15   39 1
    29   16   17 1
    30   18   19 1
    31   18   20 1
    32   18   26 1
    33   20   25 ar
    34   20   21 ar
    35   21   22 ar
    36   21   40 1
    37   22   23 ar
    38   22   41 1
    39   23   24 ar
    40   23   42 1
    41   24   25 ar
    42   24   43 1
    43   25   44 1
    44   26   27 1
    45   26   28 1
    46   26   29 1
    47   28   45 1
    48   28   46 1
    49   28   47 1
    50   29   48 1
    51   29   49 1
    52   29   50 1
##########                 Name:     ZINC000661656736
##########          Protonation:                 none
##########               SMILES:   C[C@H](C(=O)NC1=CC=CC(C(F)(F)F)=C1)[N@@H+](C)CC1=CCCOC1
##########            Long Name:   NO_LONG_NAME
##########          FlexRecCode: 1
##########               Number:                10905
##########   Ligand Source File: /nfs/db/export/3D/EG/ADMO/EGADMO.xauz.db2.gz
##########                 Rank:                    1
##########               Setnum:                  161
##########             Matchnum:                    1
##########                Cloud:                    1
##########        Electrostatic:           -44.354000
##########                 Gist:             0.000000
##########        Van der Waals:           -34.467812
##########  Ligand Polar Desolv:            17.238342
########## Ligand Apolar Desolv:            -5.022848
##########      Internal Energy:             0.000000
##########      Receptor Energy:             0.000000
########## Receptor Desolvation:             0.000000
########## Receptor Hydrophobic:             0.000000
##########         Total Energy:           -66.606316
##########        Ligand Charge:             1.000000
##########            Arbitrary:    +999.9990
##########        Ligand Energy:             0.000000

@<TRIPOS>MOLECULE
 ZINC000661656736      none
   46    47     0     0     0



@<TRIPOS>ATOM
      1 C1        -16.3429    16.5583   -18.6601 C.3        1  LIG1  -0.1800
      2 C2        -16.9406    17.0347   -17.3347 C.3        1  LIG1   0.0100
      3 H1        -16.8338    18.1166   -17.2560 H          1  LIG1   0.1600
      4 C3        -16.2162    16.3737   -16.1905 C.2        1  LIG1   0.5000
      5 O1        -15.6369    17.0506   -15.3675 O.2        1  LIG1  -0.5000
      6 N1        -16.2119    15.0303   -16.0815 N.am       1  LIG1  -0.6400
      7 C4        -15.5393    14.4167   -15.0191 C.ar       1  LIG1   0.1200
      8 C5        -15.9869    13.1998   -14.5223 C.ar       1  LIG1  -0.1000
      9 C6        -15.3207    12.5966   -13.4733 C.ar       1  LIG1  -0.0900
     10 C7        -14.2094    13.2034   -12.9179 C.ar       1  LIG1  -0.0700
     11 C8        -13.7612    14.4156   -13.4102 C.ar       1  LIG1  -0.1600
     12 C9        -12.5495    15.0735   -12.8018 C.3        1  LIG1   0.5100
     13 F1        -12.0565    14.2745   -11.7646 F          1  LIG1  -0.1700
     14 F2        -11.5622    15.2284   -13.7808 F          1  LIG1  -0.1700
     15 F3        -12.9051    16.3281   -12.2953 F          1  LIG1  -0.1700
     16 C10       -14.4189    15.0206   -14.4631 C.ar       1  LIG1  -0.0700
     17 N2        -18.3649    16.6782   -17.2836 N.4        1  LIG1  -0.3700
     18 H2        -18.4954    15.7576   -17.6754 H          1  LIG1   0.4300
     19 C11       -18.8218    16.6858   -15.8876 C.3        1  LIG1  -0.0600
     20 C12       -19.1420    17.6547   -18.0586 C.3        1  LIG1   0.0300
     21 C13       -20.4769    17.0582   -18.4236 C.2        1  LIG1  -0.2400
     22 C14       -20.5797    16.4017   -19.5407 C.2        1  LIG1  -0.0600
     23 C15       -21.8705    15.7788   -19.9963 C.3        1  LIG1  -0.1400
     24 C16       -22.8382    15.6794   -18.8139 C.3        1  LIG1   0.0500
     25 O2        -22.8609    16.9445   -18.1410 O.3        1  LIG1  -0.3700
     26 C17       -21.6294    17.2434   -17.4778 C.3        1  LIG1   0.0900
     27 H3        -16.4497    15.4765   -18.7389 H          1  LIG1   0.0900
     28 H4        -16.8670    17.0364   -19.4877 H          1  LIG1   0.1000
     29 H5        -15.2861    16.8228   -18.6980 H          1  LIG1   0.1100
     30 H6        -16.6751    14.4889   -16.7396 H          1  LIG1   0.4200
     31 H7        -16.8553    12.7257   -14.9552 H          1  LIG1   0.1400
     32 H8        -15.6684    11.6501   -13.0864 H          1  LIG1   0.1500
     33 H9        -13.6905    12.7299   -12.0976 H          1  LIG1   0.1500
     34 H10       -14.0685    15.9673   -14.8470 H          1  LIG1   0.1500
     35 H11       -19.8785    16.4213   -15.8497 H          1  LIG1   0.1300
     36 H12       -18.2451    15.9613   -15.3126 H          1  LIG1   0.1300
     37 H13       -18.6807    17.6805   -15.4646 H          1  LIG1   0.1200
     38 H14       -19.2967    18.5527   -17.4606 H          1  LIG1   0.1400
     39 H15       -18.5985    17.9126   -18.9675 H          1  LIG1   0.1400
     40 H16       -19.7047    16.2997   -20.1657 H          1  LIG1   0.1200
     41 H17       -22.3146    16.3948   -20.7781 H          1  LIG1   0.1000
     42 H18       -21.6733    14.7811   -20.3888 H          1  LIG1   0.1000
     43 H19       -23.8376    15.4385   -19.1765 H          1  LIG1   0.1100
     44 H20       -22.4998    14.9041   -18.1265 H          1  LIG1   0.0600
     45 H21       -21.5108    16.5815   -16.6199 H          1  LIG1   0.0800
     46 H22       -21.6458    18.2777   -17.1341 H          1  LIG1   0.1000
@<TRIPOS>BOND
     1    1    2 1
     2    1   27 1
     3    1   28 1
     4    1   29 1
     5    2    3 1
     6    2    4 1
     7    2   17 1
     8    4    5 2
     9    4    6 am
    10    6    7 1
    11    6   30 1
    12    7   16 ar
    13    7    8 ar
    14    8    9 ar
    15    8   31 1
    16    9   10 ar
    17    9   32 1
    18   10   11 ar
    19   10   33 1
    20   11   12 1
    21   11   16 ar
    22   12   13 1
    23   12   14 1
    24   12   15 1
    25   16   34 1
    26   17   18 1
    27   17   19 1
    28   17   20 1
    29   19   35 1
    30   19   36 1
    31   19   37 1
    32   20   21 1
    33   20   38 1
    34   20   39 1
    35   21   26 1
    36   21   22 2
    37   22   23 1
    38   22   40 1
    39   23   24 1
    40   23   41 1
    41   23   42 1
    42   24   25 1
    43   24   43 1
    44   24   44 1
    45   25   26 1
    46   26   45 1
    47   26   46 1
##########                 Name:     ZINC000277343296
##########          Protonation:                 none
##########               SMILES:   O[C@]1(C[NH2+]C2CC(C3=CC=CC(Br)=C3)C2)CCSC1
##########            Long Name:   NO_LONG_NAME
##########          FlexRecCode: 1
##########               Number:                11165
##########   Ligand Source File: /nfs/db/export/3D/EG/ADRO/EGADRO.xckl.db2.gz
##########                 Rank:                    1
##########               Setnum:                   27
##########             Matchnum:                    1
##########                Cloud:                    1
##########        Electrostatic:           -45.835365
##########                 Gist:             0.000000
##########        Van der Waals:           -28.870405
##########  Ligand Polar Desolv:            13.517977
########## Ligand Apolar Desolv:            -4.417061
##########      Internal Energy:             0.000000
##########      Receptor Energy:             0.000000
########## Receptor Desolvation:             0.000000
########## Receptor Hydrophobic:             0.000000
##########         Total Energy:           -65.604858
##########        Ligand Charge:             1.000000
##########            Arbitrary:    +999.9990
##########        Ligand Energy:             0.000000

@<TRIPOS>MOLECULE
 ZINC000277343296      none
   40    42     0     0     0



@<TRIPOS>ATOM
      1 O1        -20.9089    16.0125   -17.9939 O.3        1  LIG1  -0.5500
      2 C1        -20.3708    17.1512   -18.6692 C.3        1  LIG1   0.1100
      3 C2        -19.0816    17.5971   -17.9761 C.3        1  LIG1   0.0200
      4 N1        -18.1032    16.5020   -18.0105 N.4        1  LIG1  -0.5000
      5 H1        -18.4813    15.6980   -17.5322 H          1  LIG1   0.4300
      6 H2        -17.9031    16.2596   -18.9693 H          1  LIG1   0.4300
      7 C3        -16.8655    16.9300   -17.3451 C.3        1  LIG1  -0.0100
      8 C4        -16.9118    16.7976   -15.8137 C.3        1  LIG1  -0.1400
      9 C5        -15.4575    16.3037   -15.8910 C.3        1  LIG1  -0.0500
     10 C6        -15.1558    15.1654   -14.9506 C.ar       1  LIG1  -0.0800
     11 C7        -15.8526    13.9766   -15.0588 C.ar       1  LIG1  -0.1100
     12 C8        -15.5761    12.9319   -14.1963 C.ar       1  LIG1  -0.1100
     13 C9        -14.6030    13.0760   -13.2257 C.ar       1  LIG1  -0.0800
     14 C10       -13.9053    14.2657   -13.1171 C.ar       1  LIG1  -0.0900
     15 Br1       -12.5737    14.4634   -11.7892 Br         1  LIG1  -0.0300
     16 C11       -14.1782    15.3084   -13.9837 C.ar       1  LIG1  -0.0800
     17 C12       -15.7708    15.8502   -17.3267 C.3        1  LIG1  -0.1400
     18 C13       -21.3932    18.3005   -18.6385 C.3        1  LIG1  -0.1500
     19 C14       -22.5291    17.9199   -19.6243 C.3        1  LIG1  -0.0900
     20 S1        -21.5948    17.2362   -21.0474 S.3        1  LIG1  -0.2300
     21 C15       -20.0700    16.7880   -20.1380 C.3        1  LIG1  -0.1500
     22 H3        -20.3184    15.2468   -17.9820 H          1  LIG1   0.4100
     23 H4        -18.6732    18.4656   -18.4927 H          1  LIG1   0.1500
     24 H5        -19.2978    17.8589   -16.9403 H          1  LIG1   0.1500
     25 H6        -16.5139    17.9024   -17.6902 H          1  LIG1   0.1700
     26 H7        -17.0224    17.7507   -15.2962 H          1  LIG1   0.1100
     27 H8        -17.6121    16.0401   -15.4619 H          1  LIG1   0.1100
     28 H9        -14.7207    17.1050   -15.8358 H          1  LIG1   0.1200
     29 H10       -16.6134    13.8638   -15.8170 H          1  LIG1   0.1200
     30 H11       -16.1210    12.0033   -14.2809 H          1  LIG1   0.1400
     31 H12       -14.3875    12.2599   -12.5518 H          1  LIG1   0.1400
     32 H13       -13.6336    16.2372   -13.8996 H          1  LIG1   0.1400
     33 H14       -16.1591    14.8336   -17.3885 H          1  LIG1   0.1100
     34 H15       -14.9601    16.0383   -18.0307 H          1  LIG1   0.1100
     35 H16       -21.7961    18.4138   -17.6320 H          1  LIG1   0.1100
     36 H17       -20.9195    19.2290   -18.9570 H          1  LIG1   0.1000
     37 H18       -23.1828    17.1636   -19.1897 H          1  LIG1   0.1000
     38 H19       -23.0973    18.8016   -19.9206 H          1  LIG1   0.1200
     39 H20       -19.2235    17.3670   -20.5068 H          1  LIG1   0.1100
     40 H21       -19.8714    15.7204   -20.2323 H          1  LIG1   0.1200
@<TRIPOS>BOND
     1    1    2 1
     2    1   22 1
     3    2   21 1
     4    2    3 1
     5    2   18 1
     6    3    4 1
     7    3   23 1
     8    3   24 1
     9    4    5 1
    10    4    6 1
    11    4    7 1
    12    7   17 1
    13    7    8 1
    14    7   25 1
    15    8    9 1
    16    8   26 1
    17    8   27 1
    18    9   10 1
    19    9   17 1
    20    9   28 1
    21   10   16 ar
    22   10   11 ar
    23   11   12 ar
    24   11   29 1
    25   12   13 ar
    26   12   30 1
    27   13   14 ar
    28   13   31 1
    29   14   15 1
    30   14   16 ar
    31   16   32 1
    32   17   33 1
    33   17   34 1
    34   18   19 1
    35   18   35 1
    36   18   36 1
    37   19   20 1
    38   19   37 1
    39   19   38 1
    40   20   21 1
    41   21   39 1
    42   21   40 1
##########                 Name:     ZINC000372295546
##########          Protonation:                 none
##########               SMILES:   C[C@H](C(=O)NC1=CC=C(OC(F)(F)F)C=C1)[N@H+]1C[C@H](O)C2(CC2)C1
##########            Long Name:   NO_LONG_NAME
##########          FlexRecCode: 1
##########               Number:                12192
##########   Ligand Source File: /nfs/db/export/3D/EE/ADMO/EEADMO.xath.db2.gz
##########                 Rank:                    1
##########               Setnum:                  108
##########             Matchnum:                    1
##########                Cloud:                    1
##########        Electrostatic:           -50.325706
##########                 Gist:             0.000000
##########        Van der Waals:           -31.029398
##########  Ligand Polar Desolv:            13.967686
########## Ligand Apolar Desolv:            -2.443864
##########      Internal Energy:             0.000000
##########      Receptor Energy:             0.000000
########## Receptor Desolvation:             0.000000
########## Receptor Hydrophobic:             0.000000
##########         Total Energy:           -69.831284
##########        Ligand Charge:             1.000000
##########            Arbitrary:    +999.9990
##########        Ligand Energy:             0.000000

@<TRIPOS>MOLECULE
 ZINC000372295546      none
   44    46     0     0     0



@<TRIPOS>ATOM
      1 C1        -17.3015    15.9694   -19.9282 C.3        1  LIG1  -0.1800
      2 C2        -17.8063    16.9100   -18.8321 C.3        1  LIG1   0.0100
      3 H1        -17.8389    17.9299   -19.2153 H          1  LIG1   0.1700
      4 C3        -16.8755    16.8474   -17.6487 C.2        1  LIG1   0.5100
      5 O1        -16.3048    17.8494   -17.2722 O.2        1  LIG1  -0.5100
      6 N1        -16.6770    15.6781   -17.0085 N.am       1  LIG1  -0.6400
      7 C4        -15.8117    15.6200   -15.9081 C.ar       1  LIG1   0.1000
      8 C5        -16.0330    14.6925   -14.8989 C.ar       1  LIG1  -0.0900
      9 C6        -15.1795    14.6353   -13.8149 C.ar       1  LIG1  -0.1000
     10 C7        -14.1014    15.5046   -13.7339 C.ar       1  LIG1   0.1100
     11 O2        -13.2615    15.4481   -12.6661 O.3        1  LIG1  -0.3100
     12 C8        -12.1339    14.5770   -12.7729 C.3        1  LIG1   0.6000
     13 F1        -12.4551    13.4981   -13.6037 F          1  LIG1  -0.1600
     14 F2        -11.0525    15.2785   -13.3167 F          1  LIG1  -0.1200
     15 F3        -11.7900    14.1014   -11.5028 F          1  LIG1  -0.1600
     16 C9        -13.8795    16.4312   -14.7422 C.ar       1  LIG1  -0.1700
     17 C10       -14.7292    16.4859   -15.8293 C.ar       1  LIG1  -0.0700
     18 N2        -19.1543    16.4995   -18.4173 N.4        1  LIG1  -0.3700
     19 H2        -19.1367    15.5559   -18.0605 H          1  LIG1   0.4400
     20 C11       -19.6768    17.4287   -17.3822 C.3        1  LIG1  -0.0400
     21 C12       -21.2136    17.2414   -17.4759 C.3        1  LIG1   0.1200
     22 H3        -21.7336    18.1290   -17.1155 H          1  LIG1   0.1100
     23 O3        -21.6280    16.0833   -16.7486 O.3        1  LIG1  -0.5500
     24 C13       -21.4402    17.0521   -18.9870 C.3        1  LIG1  -0.1800
     25 C14       -22.7589    16.5133   -19.5257 C.3        1  LIG1  -0.1300
     26 C15       -22.3680    17.9742   -19.7671 C.3        1  LIG1  -0.1400
     27 C16       -20.0915    16.5956   -19.5599 C.3        1  LIG1   0.0400
     28 H4        -17.2688    14.9495   -19.5451 H          1  LIG1   0.0900
     29 H5        -17.9747    16.0145   -20.7843 H          1  LIG1   0.1000
     30 H6        -16.3013    16.2740   -20.2362 H          1  LIG1   0.1100
     31 H7        -17.1334    14.8769   -17.3095 H          1  LIG1   0.4200
     32 H8        -16.8727    14.0162   -14.9614 H          1  LIG1   0.1500
     33 H9        -15.3515    13.9140   -13.0297 H          1  LIG1   0.1500
     34 H10       -13.0399    17.1076   -14.6786 H          1  LIG1   0.1400
     35 H11       -14.5561    17.2070   -16.6144 H          1  LIG1   0.1500
     36 H12       -19.3147    17.1457   -16.3938 H          1  LIG1   0.1500
     37 H13       -19.4000    18.4571   -17.6141 H          1  LIG1   0.1400
     38 H14       -21.2323    15.2589   -17.0630 H          1  LIG1   0.4000
     39 H15       -22.7151    15.8333   -20.3764 H          1  LIG1   0.1100
     40 H16       -23.5541    16.3169   -18.8066 H          1  LIG1   0.1200
     41 H17       -22.9062    18.7387   -19.2067 H          1  LIG1   0.1100
     42 H18       -22.0672    18.2549   -20.7765 H          1  LIG1   0.1100
     43 H19       -19.7258    17.3272   -20.2806 H          1  LIG1   0.1400
     44 H20       -20.1999    15.6223   -20.0384 H          1  LIG1   0.1400
@<TRIPOS>BOND
     1    1    2 1
     2    1   28 1
     3    1   29 1
     4    1   30 1
     5    2    3 1
     6    2    4 1
     7    2   18 1
     8    4    5 2
     9    4    6 am
    10    6    7 1
    11    6   31 1
    12    7   17 ar
    13    7    8 ar
    14    8    9 ar
    15    8   32 1
    16    9   10 ar
    17    9   33 1
    18   10   11 1
    19   10   16 ar
    20   11   12 1
    21   12   13 1
    22   12   14 1
    23   12   15 1
    24   16   17 ar
    25   16   34 1
    26   17   35 1
    27   18   19 1
    28   18   27 1
    29   18   20 1
    30   20   21 1
    31   20   36 1
    32   20   37 1
    33   21   22 1
    34   21   23 1
    35   21   24 1
    36   23   38 1
    37   24   26 1
    38   24   25 1
    39   24   27 1
    40   25   26 1
    41   25   39 1
    42   25   40 1
    43   26   41 1
    44   26   42 1
    45   27   43 1
    46   27   44 1
##########                 Name:     ZINC000650720303
##########          Protonation:                 none
##########               SMILES:   C1=NN(C2=CC=CC=C2C[NH2+]CC[C@@H]2CCC3=CC=CC=C3N2)C=N1
##########            Long Name:   NO_LONG_NAME
##########          FlexRecCode: 1
##########               Number:                 4778
##########   Ligand Source File: /nfs/db/export/3D/EG/ADRO/EGADRO.xcra.db2.gz
##########                 Rank:                    1
##########               Setnum:                   14
##########             Matchnum:                    1
##########                Cloud:                    1
##########        Electrostatic:           -50.448311
##########                 Gist:             0.000000
##########        Van der Waals:           -30.185181
##########  Ligand Polar Desolv:            17.741371
########## Ligand Apolar Desolv:            -7.001274
##########      Internal Energy:             0.000000
##########      Receptor Energy:             0.000000
########## Receptor Desolvation:             0.000000
########## Receptor Hydrophobic:             0.000000
##########         Total Energy:           -69.893394
##########        Ligand Charge:             1.000000
##########            Arbitrary:    +999.9990
##########        Ligand Energy:             0.000000

@<TRIPOS>MOLECULE
 ZINC000650720303      none
   49    52     0     0     0



@<TRIPOS>ATOM
      1 C1        -13.5373    17.0144   -13.6680 C.2        1  LIG1   0.2500
      2 N1        -14.2909    16.2899   -14.4534 N.2        1  LIG1  -0.3800
      3 N2        -14.2638    14.9801   -13.9471 N.pl3      1  LIG1  -0.3500
      4 C2        -14.9294    13.8626   -14.4705 C.ar       1  LIG1   0.1700
      5 C3        -14.8078    12.6270   -13.8497 C.ar       1  LIG1  -0.1300
      6 C4        -15.4649    11.5277   -14.3678 C.ar       1  LIG1  -0.0600
      7 C5        -16.2424    11.6572   -15.5036 C.ar       1  LIG1  -0.1100
      8 C6        -16.3654    12.8871   -16.1242 C.ar       1  LIG1  -0.0700
      9 C7        -15.7160    13.9908   -15.6075 C.ar       1  LIG1  -0.1600
     10 C8        -15.8505    15.3306   -16.2845 C.3        1  LIG1   0.0500
     11 N3        -16.7290    15.2018   -17.4548 N.4        1  LIG1  -0.5000
     12 H1        -16.3323    14.5365   -18.1014 H          1  LIG1   0.4200
     13 H2        -17.6388    14.8818   -17.1588 H          1  LIG1   0.4200
     14 C9        -16.8600    16.5077   -18.1147 C.3        1  LIG1  -0.0100
     15 C10       -17.7749    16.3737   -19.3336 C.3        1  LIG1  -0.1600
     16 C11       -17.9114    17.7337   -20.0209 C.3        1  LIG1   0.1600
     17 H3        -17.9936    18.5199   -19.2704 H          1  LIG1   0.0800
     18 C12       -19.1560    17.7399   -20.9182 C.3        1  LIG1  -0.1300
     19 C13       -19.3103    19.1284   -21.5387 C.3        1  LIG1  -0.0700
     20 C14       -18.0224    19.5618   -22.1876 C.ar       1  LIG1  -0.1500
     21 C15       -18.0590    20.5541   -23.1523 C.ar       1  LIG1  -0.0800
     22 C16       -16.8938    20.9758   -23.7635 C.ar       1  LIG1  -0.1600
     23 C17       -15.6820    20.4086   -23.4151 C.ar       1  LIG1  -0.0800
     24 C18       -15.6365    19.4175   -22.4550 C.ar       1  LIG1  -0.1800
     25 C19       -16.8078    18.9908   -21.8392 C.ar       1  LIG1   0.2000
     26 N4        -16.7405    17.9801   -20.8735 N.pl3      1  LIG1  -0.7600
     27 C20       -13.4704    15.0113   -12.8586 C.2        1  LIG1   0.2900
     28 N5        -13.0425    16.2381   -12.7044 N.2        1  LIG1  -0.5200
     29 H4        -13.3433    18.0704   -13.7843 H          1  LIG1   0.2300
     30 H5        -14.2000    12.5251   -12.9628 H          1  LIG1   0.1500
     31 H6        -15.3706    10.5662   -13.8853 H          1  LIG1   0.1500
     32 H7        -16.7545    10.7963   -15.9072 H          1  LIG1   0.1500
     33 H8        -16.9732    12.9851   -17.0116 H          1  LIG1   0.1500
     34 H9        -16.2789    16.0492   -15.5859 H          1  LIG1   0.1400
     35 H10       -14.8675    15.6763   -16.6043 H          1  LIG1   0.1600
     36 H11       -17.2884    17.2264   -17.4161 H          1  LIG1   0.1400
     37 H12       -15.8770    16.8535   -18.4345 H          1  LIG1   0.1300
     38 H13       -17.3465    15.6550   -20.0322 H          1  LIG1   0.0900
     39 H14       -18.7580    16.0280   -19.0138 H          1  LIG1   0.1000
     40 H15       -19.0405    16.9977   -21.7080 H          1  LIG1   0.0700
     41 H16       -20.0377    17.5067   -20.3213 H          1  LIG1   0.0800
     42 H17       -20.1006    19.1019   -22.2890 H          1  LIG1   0.0800
     43 H18       -19.5801    19.8427   -20.7609 H          1  LIG1   0.0700
     44 H19       -19.0028    21.0011   -23.4283 H          1  LIG1   0.1200
     45 H20       -16.9297    21.7501   -24.5157 H          1  LIG1   0.1200
     46 H21       -14.7722    20.7400   -23.8935 H          1  LIG1   0.1200
     47 H22       -14.6905    18.9737   -22.1816 H          1  LIG1   0.1200
     48 H23       -15.9345    17.4504   -20.7697 H          1  LIG1   0.3900
     49 H24       -13.2298    14.1708   -12.2245 H          1  LIG1   0.2300
@<TRIPOS>BOND
     1    1   28 1
     2    1    2 2
     3    1   29 1
     4    2    3 1
     5    3    4 1
     6    3   27 1
     7    4    9 ar
     8    4    5 ar
     9    5    6 ar
    10    5   30 1
    11    6    7 ar
    12    6   31 1
    13    7    8 ar
    14    7   32 1
    15    8    9 ar
    16    8   33 1
    17    9   10 1
    18   10   11 1
    19   10   34 1
    20   10   35 1
    21   11   12 1
    22   11   13 1
    23   11   14 1
    24   14   15 1
    25   14   36 1
    26   14   37 1
    27   15   16 1
    28   15   38 1
    29   15   39 1
    30   16   17 1
    31   16   26 1
    32   16   18 1
    33   18   19 1
    34   18   40 1
    35   18   41 1
    36   19   20 1
    37   19   42 1
    38   19   43 1
    39   20   25 ar
    40   20   21 ar
    41   21   22 ar
    42   21   44 1
    43   22   23 ar
    44   22   45 1
    45   23   24 ar
    46   23   46 1
    47   24   25 ar
    48   24   47 1
    49   25   26 1
    50   26   48 1
    51   27   28 2
    52   27   49 1
##########                 Name:     ZINC000599310911
##########          Protonation:                 none
##########               SMILES:   C[N@@H+]1CCCC[C@H]1C(=O)NCCNC1=NC=C(Cl)C=C1Cl
##########            Long Name:   NO_LONG_NAME
##########          FlexRecCode: 1
##########               Number:                13181
##########   Ligand Source File: /nfs/db/export/3D/EE/ADRO/EEADRO.xavm.db2.gz
##########                 Rank:                    1
##########               Setnum:                  190
##########             Matchnum:                    1
##########                Cloud:                    1
##########        Electrostatic:           -42.904190
##########                 Gist:             0.000000
##########        Van der Waals:           -30.353479
##########  Ligand Polar Desolv:            13.360593
########## Ligand Apolar Desolv:            -3.998698
##########      Internal Energy:             0.000000
##########      Receptor Energy:             0.000000
########## Receptor Desolvation:             0.000000
########## Receptor Hydrophobic:             0.000000
##########         Total Energy:           -63.895775
##########        Ligand Charge:             1.000000
##########            Arbitrary:    +999.9990
##########        Ligand Energy:             0.000000

@<TRIPOS>MOLECULE
 ZINC000599310911      none
   42    43     0     0     0



@<TRIPOS>ATOM
      1 C1        -17.6146    16.2634   -19.8524 C.3        1  LIG1  -0.0600
      2 N1        -18.9139    16.3858   -19.1780 N.4        1  LIG1  -0.3700
      3 H1        -19.1018    15.5427   -18.6566 H          1  LIG1   0.4300
      4 C2        -19.9672    16.5842   -20.1809 C.3        1  LIG1  -0.0100
      5 C3        -21.3319    16.6313   -19.4902 C.3        1  LIG1  -0.1500
      6 C4        -21.3519    17.7910   -18.4902 C.3        1  LIG1  -0.1400
      7 C5        -20.2030    17.6127   -17.4936 C.3        1  LIG1  -0.1400
      8 C6        -18.8807    17.5303   -18.2595 C.3        1  LIG1   0.0100
      9 H2        -18.7322    18.4490   -18.8269 H          1  LIG1   0.1600
     10 C7        -17.7458    17.3542   -17.2838 C.2        1  LIG1   0.5100
     11 O1        -16.8581    18.1788   -17.2309 O.2        1  LIG1  -0.5200
     12 N2        -17.7173    16.2802   -16.4700 N.am       1  LIG1  -0.7000
     13 C8        -16.6139    16.1089   -15.5216 C.3        1  LIG1   0.1000
     14 C9        -15.4881    15.3147   -16.1870 C.3        1  LIG1   0.1200
     15 N3        -14.3847    15.1434   -15.2387 N.pl3      1  LIG1  -0.7200
     16 C10       -14.3552    14.0348   -14.3986 C.ar       1  LIG1   0.4200
     17 N4        -15.3241    13.1357   -14.4651 N.ar       1  LIG1  -0.5100
     18 C11       -15.3342    12.0696   -13.6870 C.ar       1  LIG1   0.1700
     19 C12       -14.3260    11.8533   -12.7683 C.ar       1  LIG1  -0.1300
     20 Cl1       -14.3528    10.4466   -11.7515 Cl         1  LIG1  -0.0400
     21 C13       -13.2894    12.7735   -12.6664 C.ar       1  LIG1  -0.0100
     22 C14       -13.3035    13.8783   -13.4998 C.ar       1  LIG1  -0.1400
     23 Cl2       -12.0341    15.0596   -13.4163 Cl         1  LIG1  -0.0400
     24 H3        -17.4105    17.1737   -20.4160 H          1  LIG1   0.1300
     25 H4        -16.8319    16.1133   -19.1088 H          1  LIG1   0.1300
     26 H5        -17.6372    15.4121   -20.5328 H          1  LIG1   0.1200
     27 H6        -19.7945    17.5227   -20.7078 H          1  LIG1   0.1300
     28 H7        -19.9495    15.7598   -20.8936 H          1  LIG1   0.1400
     29 H8        -22.1124    16.7805   -20.2363 H          1  LIG1   0.1200
     30 H9        -21.5057    15.6932   -18.9632 H          1  LIG1   0.0900
     31 H10       -21.2293    18.7339   -19.0230 H          1  LIG1   0.0900
     32 H11       -22.3016    17.7943   -17.9550 H          1  LIG1   0.1000
     33 H12       -20.1767    18.4633   -16.8125 H          1  LIG1   0.1200
     34 H13       -20.3534    16.6949   -16.9251 H          1  LIG1   0.1000
     35 H14       -18.4273    15.6207   -16.5122 H          1  LIG1   0.4100
     36 H15       -16.2393    17.0870   -15.2197 H          1  LIG1   0.0900
     37 H16       -16.9696    15.5693   -14.6439 H          1  LIG1   0.0900
     38 H17       -15.8628    14.3368   -16.4890 H          1  LIG1   0.0800
     39 H18       -15.1324    15.8544   -17.0647 H          1  LIG1   0.0800
     40 H19       -13.6748    15.8030   -15.1964 H          1  LIG1   0.4200
     41 H20       -16.1418    11.3571   -13.7696 H          1  LIG1   0.1800
     42 H21       -12.4891    12.6275   -11.9562 H          1  LIG1   0.1600
@<TRIPOS>BOND
     1    1    2 1
     2    1   24 1
     3    1   25 1
     4    1   26 1
     5    2    3 1
     6    2    8 1
     7    2    4 1
     8    4    5 1
     9    4   27 1
    10    4   28 1
    11    5    6 1
    12    5   29 1
    13    5   30 1
    14    6    7 1
    15    6   31 1
    16    6   32 1
    17    7    8 1
    18    7   33 1
    19    7   34 1
    20    8    9 1
    21    8   10 1
    22   10   11 2
    23   10   12 am
    24   12   13 1
    25   12   35 1
    26   13   14 1
    27   13   36 1
    28   13   37 1
    29   14   15 1
    30   14   38 1
    31   14   39 1
    32   15   16 1
    33   15   40 1
    34   16   22 ar
    35   16   17 ar
    36   17   18 ar
    37   18   19 ar
    38   18   41 1
    39   19   20 1
    40   19   21 ar
    41   21   22 ar
    42   21   42 1
    43   22   23 1
##########                 Name:     ZINC000265738616
##########          Protonation:                 none
##########               SMILES:   CS[C@@H](CO)[C@@H](C)[NH2+]CC1=CC(C2=CC=CC=C2)=CC=C1O
##########            Long Name:   NO_LONG_NAME
##########          FlexRecCode: 1
##########               Number:                 2151
##########   Ligand Source File: /nfs/db/export/3D/DG/CDRO/DGCDRO.xag.db2.gz
##########                 Rank:                    1
##########               Setnum:                    5
##########             Matchnum:                    1
##########                Cloud:                    1
##########        Electrostatic:           -36.551094
##########                 Gist:             0.000000
##########        Van der Waals:           -32.604668
##########  Ligand Polar Desolv:             9.017893
########## Ligand Apolar Desolv:            -3.771339
##########      Internal Energy:             0.000000
##########      Receptor Energy:             0.000000
########## Receptor Desolvation:             0.000000
########## Receptor Hydrophobic:             0.000000
##########         Total Energy:           -63.909206
##########        Ligand Charge:             1.000000
##########            Arbitrary:    +999.9990
##########        Ligand Energy:             0.000000

@<TRIPOS>MOLECULE
 ZINC000265738616      none
   46    47     0     0     0



@<TRIPOS>ATOM
      1 C1        -23.4030    18.1043   -20.0127 C.3        1  LIG1  -0.1300
      2 S1        -21.9769    17.1169   -20.5437 S.3        1  LIG1  -0.1700
      3 C2        -20.7717    17.3943   -19.2166 C.3        1  LIG1  -0.1000
      4 H1        -20.6101    18.4648   -19.0905 H          1  LIG1   0.1200
      5 C3        -21.3055    16.8017   -17.9109 C.3        1  LIG1   0.0600
      6 O1        -21.4072    15.3820   -18.0386 O.3        1  LIG1  -0.5600
      7 C4        -19.4483    16.7180   -19.5800 C.3        1  LIG1   0.0500
      8 H2        -19.6254    15.6638   -19.7930 H          1  LIG1   0.1500
      9 C5        -18.8523    17.3948   -20.8161 C.3        1  LIG1  -0.1800
     10 N1        -18.5111    16.8397   -18.4555 N.4        1  LIG1  -0.5000
     11 H3        -18.2832    17.8120   -18.3112 H          1  LIG1   0.4300
     12 H4        -18.9375    16.4667   -17.6205 H          1  LIG1   0.4200
     13 C6        -17.2849    16.0888   -18.7564 C.3        1  LIG1   0.0500
     14 C7        -16.3235    16.2136   -17.6026 C.ar       1  LIG1  -0.1800
     15 C8        -16.1340    15.1500   -16.7459 C.ar       1  LIG1  -0.0700
     16 C9        -15.2442    15.2661   -15.6791 C.ar       1  LIG1  -0.0300
     17 C10       -15.0376    14.1233   -14.7558 C.ar       1  LIG1  -0.0700
     18 C11       -15.7279    12.9293   -14.9555 C.ar       1  LIG1  -0.1100
     19 C12       -15.5316    11.8693   -14.0937 C.ar       1  LIG1  -0.1200
     20 C13       -14.6520    11.9906   -13.0331 C.ar       1  LIG1  -0.1000
     21 C14       -13.9642    13.1734   -12.8301 C.ar       1  LIG1  -0.1100
     22 C15       -14.1485    14.2380   -13.6890 C.ar       1  LIG1  -0.1000
     23 C16       -14.5486    16.4575   -15.4820 C.ar       1  LIG1  -0.0700
     24 C17       -14.7423    17.5180   -16.3423 C.ar       1  LIG1  -0.1300
     25 C18       -15.6251    17.3977   -17.4067 C.ar       1  LIG1   0.1200
     26 O2        -15.8139    18.4441   -18.2526 O.3        1  LIG1  -0.5100
     27 H5        -24.2028    18.0118   -20.7474 H          1  LIG1   0.1200
     28 H6        -23.7544    17.7443   -19.0457 H          1  LIG1   0.0800
     29 H7        -23.1087    19.1503   -19.9259 H          1  LIG1   0.0800
     30 H8        -20.6238    17.0453   -17.0960 H          1  LIG1   0.0500
     31 H9        -22.2898    17.2188   -17.6983 H          1  LIG1   0.0800
     32 H10       -20.5667    14.9430   -18.2286 H          1  LIG1   0.4000
     33 H11       -18.6752    18.4490   -20.6032 H          1  LIG1   0.0800
     34 H12       -17.9095    16.9130   -21.0751 H          1  LIG1   0.0900
     35 H13       -19.5477    17.3045   -21.6506 H          1  LIG1   0.1200
     36 H14       -17.5310    15.0385   -18.9122 H          1  LIG1   0.1400
     37 H15       -16.8243    16.4917   -19.6584 H          1  LIG1   0.1400
     38 H16       -16.6746    14.2280   -16.9009 H          1  LIG1   0.1400
     39 H17       -16.4155    12.8337   -15.7829 H          1  LIG1   0.1200
     40 H18       -16.0660    10.9435   -14.2476 H          1  LIG1   0.1300
     41 H19       -14.5019    11.1589   -12.3608 H          1  LIG1   0.1300
     42 H20       -13.2786    13.2627   -12.0004 H          1  LIG1   0.1300
     43 H21       -13.6107    15.1609   -13.5299 H          1  LIG1   0.1300
     44 H22       -13.8589    16.5504   -14.6561 H          1  LIG1   0.1400
     45 H23       -14.2035    18.4415   -16.1900 H          1  LIG1   0.1400
     46 H24       -16.4518    18.2695   -18.9580 H          1  LIG1   0.4100
@<TRIPOS>BOND
     1    1    2 1
     2    1   27 1
     3    1   28 1
     4    1   29 1
     5    2    3 1
     6    3    4 1
     7    3    5 1
     8    3    7 1
     9    5    6 1
    10    5   30 1
    11    5   31 1
    12    6   32 1
    13    7    8 1
    14    7    9 1
    15    7   10 1
    16    9   33 1
    17    9   34 1
    18    9   35 1
    19   10   11 1
    20   10   12 1
    21   10   13 1
    22   13   14 1
    23   13   36 1
    24   13   37 1
    25   14   25 ar
    26   14   15 ar
    27   15   16 ar
    28   15   38 1
    29   16   17 1
    30   16   23 ar
    31   17   22 ar
    32   17   18 ar
    33   18   19 ar
    34   18   39 1
    35   19   20 ar
    36   19   40 1
    37   20   21 ar
    38   20   41 1
    39   21   22 ar
    40   21   42 1
    41   22   43 1
    42   23   24 ar
    43   23   44 1
    44   24   25 ar
    45   24   45 1
    46   25   26 1
    47   26   46 1
##########                 Name:     ZINC000271789537
##########          Protonation:                 none
##########               SMILES:   C[C@@H]([NH2+]CC1(O)CCOCC1)C1=CC=CC(N2CCCC2)=C1
##########            Long Name:   NO_LONG_NAME
##########          FlexRecCode: 1
##########               Number:                 9843
##########   Ligand Source File: /nfs/db/export/3D/DE/ADRO/DEADRO.xaqd.db2.gz
##########                 Rank:                    1
##########               Setnum:                    8
##########             Matchnum:                    1
##########                Cloud:                    1
##########        Electrostatic:           -42.953003
##########                 Gist:             0.000000
##########        Van der Waals:           -30.559303
##########  Ligand Polar Desolv:            10.078098
########## Ligand Apolar Desolv:            -3.166444
##########      Internal Energy:             0.000000
##########      Receptor Energy:             0.000000
########## Receptor Desolvation:             0.000000
########## Receptor Hydrophobic:             0.000000
##########         Total Energy:           -66.600655
##########        Ligand Charge:             1.000000
##########            Arbitrary:    +999.9990
##########        Ligand Energy:             0.000000

@<TRIPOS>MOLECULE
 ZINC000271789537      none
   51    53     0     0     0



@<TRIPOS>ATOM
      1 C1        -16.1725    15.7491   -19.4490 C.3        1  LIG1  -0.1800
      2 C2        -16.7164    16.7438   -18.4214 C.3        1  LIG1   0.0800
      3 H1        -16.5989    17.7589   -18.8007 H          1  LIG1   0.1400
      4 N1        -18.1401    16.4718   -18.1826 N.4        1  LIG1  -0.5000
      5 H2        -18.2918    15.4747   -18.1540 H          1  LIG1   0.4300
      6 H3        -18.4174    16.8797   -17.3024 H          1  LIG1   0.4300
      7 C3        -18.9391    17.0577   -19.2673 C.3        1  LIG1   0.0100
      8 C4        -20.4220    16.7745   -19.0186 C.3        1  LIG1   0.1100
      9 O1        -20.6379    15.3626   -18.9737 O.3        1  LIG1  -0.5600
     10 C5        -20.8475    17.4023   -17.6878 C.3        1  LIG1  -0.2000
     11 C6        -22.3489    17.1817   -17.4855 C.3        1  LIG1   0.0600
     12 O2        -23.0646    17.7461   -18.5861 O.3        1  LIG1  -0.3700
     13 C7        -22.7423    17.1649   -19.8513 C.3        1  LIG1   0.0500
     14 C8        -21.2567    17.3847   -20.1486 C.3        1  LIG1  -0.1800
     15 C9        -15.9538    16.5990   -17.1297 C.ar       1  LIG1  -0.0900
     16 C10       -15.2533    17.6752   -16.6171 C.ar       1  LIG1  -0.1900
     17 C11       -14.5524    17.5469   -15.4316 C.ar       1  LIG1  -0.0500
     18 C12       -14.5498    16.3425   -14.7563 C.ar       1  LIG1  -0.1800
     19 C13       -15.2526    15.2591   -15.2686 C.ar       1  LIG1   0.2500
     20 N2        -15.2524    14.0395   -14.5877 N.pl3      1  LIG1  -0.6300
     21 C14       -14.5590    13.7657   -13.3205 C.3        1  LIG1   0.1100
     22 C15       -14.8196    12.2866   -12.9659 C.3        1  LIG1  -0.1300
     23 C16       -15.1747    11.6573   -14.3391 C.3        1  LIG1  -0.1400
     24 C17       -15.9527    12.8155   -15.0174 C.3        1  LIG1   0.1100
     25 C18       -15.9601    15.3931   -16.4563 C.ar       1  LIG1  -0.1700
     26 H4        -16.2900    14.7340   -19.0697 H          1  LIG1   0.0800
     27 H5        -16.7240    15.8540   -20.3833 H          1  LIG1   0.0800
     28 H6        -15.1160    15.9509   -19.6261 H          1  LIG1   0.1100
     29 H7        -18.7753    18.1350   -19.2981 H          1  LIG1   0.1500
     30 H8        -18.6394    16.6172   -20.2181 H          1  LIG1   0.1400
     31 H9        -20.1411    14.9107   -18.2778 H          1  LIG1   0.4000
     32 H10       -20.2972    16.9340   -16.8717 H          1  LIG1   0.0800
     33 H11       -20.6355    18.4714   -17.7052 H          1  LIG1   0.1000
     34 H12       -22.5547    16.1129   -17.4277 H          1  LIG1   0.0600
     35 H13       -22.6656    17.6635   -16.5605 H          1  LIG1   0.1100
     36 H14       -22.9533    16.0958   -19.8244 H          1  LIG1   0.0600
     37 H15       -23.3424    17.6346   -20.6305 H          1  LIG1   0.1100
     38 H16       -21.0530    18.4534   -20.2156 H          1  LIG1   0.1000
     39 H17       -20.9991    16.9041   -21.0924 H          1  LIG1   0.1000
     40 H18       -15.2532    18.6181   -17.1436 H          1  LIG1   0.1200
     41 H19       -14.0064    18.3895   -15.0340 H          1  LIG1   0.1300
     42 H20       -14.0017    16.2427   -13.8311 H          1  LIG1   0.1300
     43 H21       -13.4888    13.9355   -13.4393 H          1  LIG1   0.0700
     44 H22       -14.9538    14.4103   -12.5351 H          1  LIG1   0.0600
     45 H23       -13.9232    11.8258   -12.5508 H          1  LIG1   0.0900
     46 H24       -15.6563    12.1977   -12.2730 H          1  LIG1   0.0800
     47 H25       -14.2735    11.4070   -14.8987 H          1  LIG1   0.0800
     48 H26       -15.8115    10.7815   -14.2144 H          1  LIG1   0.0900
     49 H27       -16.9887    12.8259   -14.6789 H          1  LIG1   0.0700
     50 H28       -15.9081    12.7179   -16.1022 H          1  LIG1   0.0800
     51 H29       -16.5075    14.5528   -16.8572 H          1  LIG1   0.1300
@<TRIPOS>BOND
     1    1    2 1
     2    1   26 1
     3    1   27 1
     4    1   28 1
     5    2    3 1
     6    2    4 1
     7    2   15 1
     8    4    5 1
     9    4    6 1
    10    4    7 1
    11    7    8 1
    12    7   29 1
    13    7   30 1
    14    8   14 1
    15    8    9 1
    16    8   10 1
    17    9   31 1
    18   10   11 1
    19   10   32 1
    20   10   33 1
    21   11   12 1
    22   11   34 1
    23   11   35 1
    24   12   13 1
    25   13   14 1
    26   13   36 1
    27   13   37 1
    28   14   38 1
    29   14   39 1
    30   15   25 ar
    31   15   16 ar
    32   16   17 ar
    33   16   40 1
    34   17   18 ar
    35   17   41 1
    36   18   19 ar
    37   18   42 1
    38   19   20 1
    39   19   25 ar
    40   20   24 1
    41   20   21 1
    42   21   22 1
    43   21   43 1
    44   21   44 1
    45   22   23 1
    46   22   45 1
    47   22   46 1
    48   23   24 1
    49   23   47 1
    50   23   48 1
    51   24   49 1
    52   24   50 1
    53   25   51 1
##########                 Name:     ZINC000481348051
##########          Protonation:                 none
##########               SMILES:   C[N@@H+](CC#CC1=CC=CC=C1Cl)C[C@@H]1CCCC[C@H]1O
##########            Long Name:   NO_LONG_NAME
##########          FlexRecCode: 1
##########               Number:                 5512
##########   Ligand Source File: /nfs/db/export/3D/CG/EDMO/CGEDMO.xap.db2.gz
##########                 Rank:                    1
##########               Setnum:                    8
##########             Matchnum:                    1
##########                Cloud:                    1
##########        Electrostatic:           -39.321228
##########                 Gist:             0.000000
##########        Van der Waals:           -29.798132
##########  Ligand Polar Desolv:            11.147606
########## Ligand Apolar Desolv:            -5.714798
##########      Internal Energy:             0.000000
##########      Receptor Energy:             0.000000
########## Receptor Desolvation:             0.000000
########## Receptor Hydrophobic:             0.000000
##########         Total Energy:           -63.686554
##########        Ligand Charge:             1.000000
##########            Arbitrary:    +999.9990
##########        Ligand Energy:             0.000000

@<TRIPOS>MOLECULE
 ZINC000481348051      none
   43    44     0     0     0



@<TRIPOS>ATOM
      1 C1        -16.8863    15.2307   -18.5926 C.3        1  LIG1  -0.0500
      2 N1        -17.3881    16.3729   -17.8171 N.4        1  LIG1  -0.3900
      3 H1        -18.1249    16.0634   -17.2011 H          1  LIG1   0.4200
      4 C2        -16.2929    16.9443   -17.0222 C.3        1  LIG1   0.1300
      5 C3        -15.7673    15.9208   -16.1041 C.1        1  LIG1  -0.2600
      6 C4        -15.3481    15.1046   -15.3717 C.1        1  LIG1   0.0000
      7 C5        -14.8367    14.1089   -14.4785 C.ar       1  LIG1  -0.0200
      8 C6        -15.3845    12.8260   -14.4718 C.ar       1  LIG1  -0.0700
      9 C7        -14.8873    11.8709   -13.6086 C.ar       1  LIG1  -0.1100
     10 C8        -13.8482    12.1830   -12.7504 C.ar       1  LIG1  -0.0800
     11 C9        -13.3002    13.4533   -12.7508 C.ar       1  LIG1  -0.1100
     12 C10       -13.7836    14.4164   -13.6141 C.ar       1  LIG1  -0.0100
     13 Cl1       -13.0952    16.0100   -13.6137 Cl         1  LIG1  -0.0600
     14 C11       -17.9127    17.3943   -18.7334 C.3        1  LIG1   0.0000
     15 C12       -19.3195    16.9988   -19.1866 C.3        1  LIG1  -0.1100
     16 H2        -19.3541    15.9246   -19.3684 H          1  LIG1   0.1000
     17 C13       -19.6690    17.7459   -20.4753 C.3        1  LIG1  -0.1300
     18 C14       -21.0756    17.3503   -20.9286 C.3        1  LIG1  -0.1200
     19 C15       -22.0845    17.7158   -19.8378 C.3        1  LIG1  -0.1200
     20 C16       -21.7351    16.9686   -18.5491 C.3        1  LIG1  -0.1500
     21 C17       -20.3283    17.3641   -18.0958 C.3        1  LIG1   0.1200
     22 H3        -20.2937    18.4383   -17.9138 H          1  LIG1   0.0700
     23 O1        -20.0019    16.6665   -16.8922 O.3        1  LIG1  -0.5700
     24 H4        -16.0902    15.5650   -19.2580 H          1  LIG1   0.1300
     25 H5        -16.4970    14.4729   -17.9126 H          1  LIG1   0.1200
     26 H6        -17.6989    14.8068   -19.1824 H          1  LIG1   0.1300
     27 H7        -15.4970    17.2786   -17.6877 H          1  LIG1   0.1500
     28 H8        -16.6654    17.7918   -16.4468 H          1  LIG1   0.1500
     29 H9        -16.1962    12.5807   -15.1406 H          1  LIG1   0.1400
     30 H10       -15.3107    10.8775   -13.6028 H          1  LIG1   0.1400
     31 H11       -13.4633    11.4317   -12.0767 H          1  LIG1   0.1500
     32 H12       -12.4895    13.6907   -12.0778 H          1  LIG1   0.1500
     33 H13       -17.9529    18.3557   -18.2212 H          1  LIG1   0.1400
     34 H14       -17.2596    17.4726   -19.6026 H          1  LIG1   0.1300
     35 H15       -19.6343    18.8200   -20.2934 H          1  LIG1   0.0800
     36 H16       -18.9503    17.4856   -21.2524 H          1  LIG1   0.0600
     37 H17       -21.3246    17.8826   -21.8467 H          1  LIG1   0.0800
     38 H18       -21.1103    16.2762   -21.1105 H          1  LIG1   0.0700
     39 H19       -22.0500    18.7898   -19.6559 H          1  LIG1   0.0700
     40 H20       -23.0868    17.4340   -20.1607 H          1  LIG1   0.0800
     41 H21       -22.4538    17.2289   -17.7720 H          1  LIG1   0.0800
     42 H22       -21.7697    15.8945   -18.7309 H          1  LIG1   0.0800
     43 H23       -20.0131    15.7035   -16.9804 H          1  LIG1   0.4000
@<TRIPOS>BOND
     1    1    2 1
     2    1   24 1
     3    1   25 1
     4    1   26 1
     5    2    3 1
     6    2    4 1
     7    2   14 1
     8    4    5 1
     9    4   27 1
    10    4   28 1
    11    5    6 3
    12    6    7 1
    13    7   12 ar
    14    7    8 ar
    15    8    9 ar
    16    8   29 1
    17    9   10 ar
    18    9   30 1
    19   10   11 ar
    20   10   31 1
    21   11   12 ar
    22   11   32 1
    23   12   13 1
    24   14   15 1
    25   14   33 1
    26   14   34 1
    27   15   16 1
    28   15   21 1
    29   15   17 1
    30   17   18 1
    31   17   35 1
    32   17   36 1
    33   18   19 1
    34   18   37 1
    35   18   38 1
    36   19   20 1
    37   19   39 1
    38   19   40 1
    39   20   21 1
    40   20   41 1
    41   20   42 1
    42   21   22 1
    43   21   23 1
    44   23   43 1
##########                 Name:     ZINC000487844530
##########          Protonation:                 none
##########               SMILES:   CC[C@H](C(=O)NC[C@@H]1SCCC2=CC=CC=C21)[NH+](CC)CC
##########            Long Name:   NO_LONG_NAME
##########          FlexRecCode: 1
##########               Number:                 7997
##########   Ligand Source File: /nfs/db/export/3D/DG/ADRO/DGADRO.xbqs.db2.gz
##########                 Rank:                    1
##########               Setnum:                   31
##########             Matchnum:                    1
##########                Cloud:                    1
##########        Electrostatic:           -41.356594
##########                 Gist:             0.000000
##########        Van der Waals:           -26.869799
##########  Ligand Polar Desolv:            10.013922
########## Ligand Apolar Desolv:            -6.031427
##########      Internal Energy:             0.000000
##########      Receptor Energy:             0.000000
########## Receptor Desolvation:             0.000000
########## Receptor Hydrophobic:             0.000000
##########         Total Energy:           -64.243896
##########        Ligand Charge:             1.000000
##########            Arbitrary:    +999.9990
##########        Ligand Energy:             0.000000

@<TRIPOS>MOLECULE
 ZINC000487844530      none
   51    52     0     0     0



@<TRIPOS>ATOM
      1 C1        -15.9841    17.1361   -19.7124 C.3        1  LIG1  -0.1700
      2 C2        -17.3590    16.4957   -19.5115 C.3        1  LIG1  -0.1500
      3 C3        -18.1073    17.2329   -18.3991 C.3        1  LIG1   0.0000
      4 H1        -18.2311    18.2797   -18.6764 H          1  LIG1   0.1600
      5 C4        -17.3190    17.1423   -17.1179 C.2        1  LIG1   0.5100
      6 O1        -16.9341    18.1534   -16.5699 O.2        1  LIG1  -0.5200
      7 N1        -17.0417    15.9375   -16.5812 N.am       1  LIG1  -0.7000
      8 C5        -16.2752    15.8493   -15.3358 C.3        1  LIG1   0.1400
      9 C6        -15.4760    14.5447   -15.3200 C.3        1  LIG1  -0.0300
     10 H2        -14.7938    14.5297   -16.1700 H          1  LIG1   0.1100
     11 S1        -16.6173    13.1410   -15.4420 S.3        1  LIG1  -0.2500
     12 C7        -15.5182    11.7644   -14.9816 C.3        1  LIG1  -0.0800
     13 C8        -15.0851    11.9797   -13.5390 C.3        1  LIG1  -0.0900
     14 C9        -14.4949    13.3376   -13.2854 C.ar       1  LIG1  -0.0600
     15 C10       -13.6848    13.4144   -12.1472 C.ar       1  LIG1  -0.1200
     16 C11       -13.0845    14.5925   -11.7704 C.ar       1  LIG1  -0.1100
     17 C12       -13.2840    15.7315   -12.5282 C.ar       1  LIG1  -0.1100
     18 C13       -14.0747    15.6615   -13.6524 C.ar       1  LIG1  -0.1200
     19 C14       -14.6809    14.4621   -14.0406 C.ar       1  LIG1  -0.0900
     20 N2        -19.4274    16.6181   -18.2062 N.4        1  LIG1  -0.3600
     21 H3        -19.3313    15.7830   -17.6482 H          1  LIG1   0.4200
     22 C15       -20.3138    17.5669   -17.5191 C.3        1  LIG1  -0.0400
     23 C16       -21.6888    16.9267   -17.3181 C.3        1  LIG1  -0.1800
     24 C17       -20.0013    16.2703   -19.5130 C.3        1  LIG1  -0.0300
     25 C18       -20.1471    17.5366   -20.3592 C.3        1  LIG1  -0.1900
     26 H4        -15.4509    16.6110   -20.5050 H          1  LIG1   0.0900
     27 H5        -16.1077    18.1830   -19.9897 H          1  LIG1   0.0600
     28 H6        -15.4138    17.0706   -18.7857 H          1  LIG1   0.0800
     29 H7        -17.9291    16.5612   -20.4381 H          1  LIG1   0.1000
     30 H8        -17.2352    15.4489   -19.2343 H          1  LIG1   0.1200
     31 H9        -17.3496    15.1288   -17.0194 H          1  LIG1   0.4100
     32 H10       -15.5910    16.6953   -15.2695 H          1  LIG1   0.1000
     33 H11       -16.9584    15.8672   -14.4866 H          1  LIG1   0.0900
     34 H12       -16.0537    10.8191   -15.0693 H          1  LIG1   0.1200
     35 H13       -14.6439    11.7563   -15.6324 H          1  LIG1   0.0900
     36 H14       -15.9522    11.8498   -12.8915 H          1  LIG1   0.0900
     37 H15       -14.3440    11.2234   -13.2807 H          1  LIG1   0.0900
     38 H16       -13.5280    12.5279   -11.5506 H          1  LIG1   0.1300
     39 H17       -12.4616    14.6280   -10.8888 H          1  LIG1   0.1300
     40 H18       -12.8247    16.6658   -12.2410 H          1  LIG1   0.1300
     41 H19       -14.2328    16.5509   -14.2443 H          1  LIG1   0.1200
     42 H20       -19.8879    17.8249   -16.5494 H          1  LIG1   0.1300
     43 H21       -20.4177    18.4690   -18.1219 H          1  LIG1   0.1600
     44 H22       -22.3464    17.6307   -16.8084 H          1  LIG1   0.1100
     45 H23       -22.1145    16.6685   -18.2878 H          1  LIG1   0.0800
     46 H24       -21.5849    16.0246   -16.7153 H          1  LIG1   0.0800
     47 H25       -19.3437    15.5663   -20.0229 H          1  LIG1   0.1300
     48 H26       -20.9809    15.8141   -19.3700 H          1  LIG1   0.1500
     49 H27       -20.5729    17.2787   -21.3289 H          1  LIG1   0.0700
     50 H28       -20.8049    18.2406   -19.8494 H          1  LIG1   0.0800
     51 H29       -19.1676    17.9929   -20.5023 H          1  LIG1   0.1100
@<TRIPOS>BOND
     1    1    2 1
     2    1   26 1
     3    1   27 1
     4    1   28 1
     5    2    3 1
     6    2   29 1
     7    2   30 1
     8    3    4 1
     9    3    5 1
    10    3   20 1
    11    5    6 2
    12    5    7 am
    13    7    8 1
    14    7   31 1
    15    8    9 1
    16    8   32 1
    17    8   33 1
    18    9   10 1
    19    9   19 1
    20    9   11 1
    21   11   12 1
    22   12   13 1
    23   12   34 1
    24   12   35 1
    25   13   14 1
    26   13   36 1
    27   13   37 1
    28   14   19 ar
    29   14   15 ar
    30   15   16 ar
    31   15   38 1
    32   16   17 ar
    33   16   39 1
    34   17   18 ar
    35   17   40 1
    36   18   19 ar
    37   18   41 1
    38   20   21 1
    39   20   22 1
    40   20   24 1
    41   22   23 1
    42   22   42 1
    43   22   43 1
    44   23   44 1
    45   23   45 1
    46   23   46 1
    47   24   25 1
    48   24   47 1
    49   24   48 1
    50   25   49 1
    51   25   50 1
    52   25   51 1
##########                 Name:     ZINC000117348217
##########          Protonation:                 none
##########               SMILES:   CC(C)[C@H]1CCCC[N@H+]1CC1=NC(=O)C2=C(N1)SC1=C2CCC1
##########            Long Name:   NO_LONG_NAME
##########          FlexRecCode: 1
##########               Number:                 8234
##########   Ligand Source File: /nfs/db/export/3D/EG/ADMO/EGADMO.xafg.db2.gz
##########                 Rank:                    1
##########               Setnum:                    5
##########             Matchnum:                    1
##########                Cloud:                    1
##########        Electrostatic:           -49.438148
##########                 Gist:             0.000000
##########        Van der Waals:           -29.663340
##########  Ligand Polar Desolv:            16.815783
########## Ligand Apolar Desolv:            -5.648038
##########      Internal Energy:             0.000000
##########      Receptor Energy:             0.000000
########## Receptor Desolvation:             0.000000
########## Receptor Hydrophobic:             0.000000
##########         Total Energy:           -67.933746
##########        Ligand Charge:             1.000000
##########            Arbitrary:    +999.9990
##########        Ligand Energy:             0.000000

@<TRIPOS>MOLECULE
 ZINC000117348217      none
   49    52     0     0     0



@<TRIPOS>ATOM
      1 C1        -22.2683    17.7395   -19.8323 C.3        1  LIG1  -0.1500
      2 C2        -21.1424    17.3074   -18.8906 C.3        1  LIG1  -0.1200
      3 C3        -21.5713    16.0548   -18.1239 C.3        1  LIG1  -0.1700
      4 C4        -19.8849    17.0005   -19.7064 C.3        1  LIG1   0.0300
      5 H1        -20.0972    16.1973   -20.4120 H          1  LIG1   0.1500
      6 C5        -19.4574    18.2533   -20.4741 C.3        1  LIG1  -0.1400
      7 C6        -18.1991    17.9413   -21.2891 C.3        1  LIG1  -0.1400
      8 C7        -17.1035    17.4370   -20.3452 C.3        1  LIG1  -0.1500
      9 C8        -17.6183    16.2145   -19.5823 C.3        1  LIG1  -0.0200
     10 N1        -18.8057    16.5847   -18.8026 N.4        1  LIG1  -0.3600
     11 H2        -19.1110    15.7911   -18.2596 H          1  LIG1   0.4300
     12 C9        -18.4705    17.6943   -17.9002 C.3        1  LIG1   0.0300
     13 C10       -17.3624    17.2693   -16.9714 C.2        1  LIG1   0.4200
     14 N2        -16.3718    18.0912   -16.7629 N.2        1  LIG1  -0.6000
     15 C11       -15.3550    17.7691   -15.9457 C.2        1  LIG1   0.5500
     16 O1        -14.4344    18.5483   -15.7590 O.2        1  LIG1  -0.4600
     17 C12       -15.3756    16.4523   -15.2780 C.2        1  LIG1  -0.1900
     18 C13       -16.4476    15.6238   -15.5352 C.2        1  LIG1   0.0300
     19 N3        -17.4388    16.0626   -16.3888 N.pl3      1  LIG1  -0.5700
     20 S1        -16.2650    14.1247   -14.6434 S.3        1  LIG1   0.2400
     21 C14       -14.7367    14.6470   -13.9358 C.2        1  LIG1  -0.2000
     22 C15       -14.4067    15.8620   -14.3531 C.2        1  LIG1  -0.0600
     23 C16       -13.0799    16.2916   -13.7274 C.3        1  LIG1  -0.0600
     24 C17       -12.8812    15.3434   -12.5285 C.3        1  LIG1  -0.1200
     25 C18       -13.6799    14.1040   -12.9790 C.3        1  LIG1  -0.0500
     26 H3        -21.9627    18.6319   -20.3784 H          1  LIG1   0.0800
     27 H4        -22.4801    16.9363   -20.5378 H          1  LIG1   0.0700
     28 H5        -23.1642    17.9582   -19.2511 H          1  LIG1   0.0700
     29 H6        -20.9306    18.1107   -18.1849 H          1  LIG1   0.0900
     30 H7        -20.7691    15.7470   -17.4531 H          1  LIG1   0.0800
     31 H8        -22.4671    16.2735   -17.5426 H          1  LIG1   0.0500
     32 H9        -21.7830    15.2515   -18.8296 H          1  LIG1   0.0900
     33 H10       -20.2593    18.5599   -21.1457 H          1  LIG1   0.1200
     34 H11       -19.2446    19.0572   -19.7694 H          1  LIG1   0.0900
     35 H12       -18.4249    17.1732   -22.0288 H          1  LIG1   0.0900
     36 H13       -17.8578    18.8454   -21.7932 H          1  LIG1   0.1000
     37 H14       -16.2228    17.1600   -20.9248 H          1  LIG1   0.1100
     38 H15       -16.8418    18.2239   -19.6378 H          1  LIG1   0.0800
     39 H16       -17.8793    15.4281   -20.2905 H          1  LIG1   0.1300
     40 H17       -16.8407    15.8528   -18.9095 H          1  LIG1   0.1600
     41 H18       -18.1440    18.5534   -18.4862 H          1  LIG1   0.1700
     42 H19       -19.3499    17.9659   -17.3162 H          1  LIG1   0.1700
     43 H20       -18.1975    15.4880   -16.5764 H          1  LIG1   0.4300
     44 H21       -12.2669    16.1725   -14.4436 H          1  LIG1   0.0900
     45 H22       -13.1383    17.3255   -13.3874 H          1  LIG1   0.0900
     46 H23       -11.8273    15.1009   -12.3927 H          1  LIG1   0.0900
     47 H24       -13.3027    15.7704   -11.6186 H          1  LIG1   0.0800
     48 H25       -14.1540    13.6262   -12.1217 H          1  LIG1   0.0900
     49 H26       -13.0277    13.3992   -13.4945 H          1  LIG1   0.0900
@<TRIPOS>BOND
     1    1    2 1
     2    1   26 1
     3    1   27 1
     4    1   28 1
     5    2    3 1
     6    2    4 1
     7    2   29 1
     8    3   30 1
     9    3   31 1
    10    3   32 1
    11    4    5 1
    12    4   10 1
    13    4    6 1
    14    6    7 1
    15    6   33 1
    16    6   34 1
    17    7    8 1
    18    7   35 1
    19    7   36 1
    20    8    9 1
    21    8   37 1
    22    8   38 1
    23    9   10 1
    24    9   39 1
    25    9   40 1
    26   10   11 1
    27   10   12 1
    28   12   13 1
    29   12   41 1
    30   12   42 1
    31   13   19 1
    32   13   14 2
    33   14   15 1
    34   15   16 2
    35   15   17 1
    36   17   22 1
    37   17   18 2
    38   18   19 1
    39   18   20 1
    40   19   43 1
    41   20   21 1
    42   21   25 1
    43   21   22 2
    44   22   23 1
    45   23   24 1
    46   23   44 1
    47   23   45 1
    48   24   25 1
    49   24   46 1
    50   24   47 1
    51   25   48 1
    52   25   49 1
##########                 Name:     ZINC000572302473
##########          Protonation:                 none
##########               SMILES:   CC1(C)CC[N@H+](CC(=O)NC[C@@H]2CCC[C@H]2C2CC2)C1
##########            Long Name:   NO_LONG_NAME
##########          FlexRecCode: 1
##########               Number:                 3861
##########   Ligand Source File: /nfs/db/export/3D/CF/ADRO/CFADRO.xcks.db2.gz
##########                 Rank:                    1
##########               Setnum:                  129
##########             Matchnum:                    1
##########                Cloud:                    1
##########        Electrostatic:           -47.841228
##########                 Gist:             0.000000
##########        Van der Waals:           -24.031233
##########  Ligand Polar Desolv:            11.871703
########## Ligand Apolar Desolv:            -5.770308
##########      Internal Energy:             0.000000
##########      Receptor Energy:             0.000000
########## Receptor Desolvation:             0.000000
########## Receptor Hydrophobic:             0.000000
##########         Total Energy:           -65.771065
##########        Ligand Charge:             1.000000
##########            Arbitrary:    +999.9990
##########        Ligand Energy:             0.000000

@<TRIPOS>MOLECULE
 ZINC000572302473      none
   51    53     0     0     0



@<TRIPOS>ATOM
      1 C1        -21.8332    15.5912   -19.3216 C.3        1  LIG1  -0.1600
      2 C2        -21.0754    16.9121   -19.1725 C.3        1  LIG1  -0.0800
      3 C3        -21.6964    17.9840   -20.0703 C.3        1  LIG1  -0.1500
      4 C4        -21.0850    17.3720   -17.7001 C.3        1  LIG1  -0.1400
      5 C5        -19.5990    17.4165   -17.2841 C.3        1  LIG1  -0.0100
      6 N1        -18.9214    16.4774   -18.2148 N.4        1  LIG1  -0.3800
      7 H1        -19.0620    15.5234   -17.9177 H          1  LIG1   0.4300
      8 C6        -17.4871    16.7832   -18.2992 C.3        1  LIG1  -0.0300
      9 C7        -16.8644    16.6535   -16.9330 C.2        1  LIG1   0.5000
     10 O1        -16.3241    17.6101   -16.4195 O.2        1  LIG1  -0.5300
     11 N2        -16.9083    15.4743   -16.2819 N.am       1  LIG1  -0.7000
     12 C8        -16.3032    15.3482   -14.9535 C.3        1  LIG1   0.1200
     13 C9        -15.2075    14.2810   -14.9916 C.3        1  LIG1  -0.1000
     14 H2        -14.4380    14.5618   -15.7109 H          1  LIG1   0.0900
     15 C10       -15.8136    12.9145   -15.3727 C.3        1  LIG1  -0.1200
     16 C11       -15.0232    11.8958   -14.5144 C.3        1  LIG1  -0.1200
     17 C12       -14.8381    12.6492   -13.1739 C.3        1  LIG1  -0.1200
     18 C13       -14.5863    14.1132   -13.5938 C.3        1  LIG1  -0.0500
     19 H3        -15.0658    14.7918   -12.8884 H          1  LIG1   0.0800
     20 C14       -13.0828    14.3915   -13.6489 C.3        1  LIG1  -0.1500
     21 C15       -12.6195    15.8249   -13.3812 C.3        1  LIG1  -0.1800
     22 C16       -12.3794    14.7353   -12.3343 C.3        1  LIG1  -0.1800
     23 C17       -19.5844    16.7174   -19.5223 C.3        1  LIG1   0.0000
     24 H4        -22.8830    15.7444   -19.0716 H          1  LIG1   0.0600
     25 H5        -21.7520    15.2399   -20.3502 H          1  LIG1   0.0800
     26 H6        -21.4042    14.8484   -18.6491 H          1  LIG1   0.0700
     27 H7        -21.1473    18.9183   -19.9540 H          1  LIG1   0.0800
     28 H8        -21.6467    17.6605   -21.1101 H          1  LIG1   0.0700
     29 H9        -22.7378    18.1369   -19.7868 H          1  LIG1   0.0700
     30 H10       -21.5315    18.3627   -17.6158 H          1  LIG1   0.1100
     31 H11       -21.6295    16.6567   -17.0836 H          1  LIG1   0.1000
     32 H12       -19.2007    18.4241   -17.4040 H          1  LIG1   0.1300
     33 H13       -19.4824    17.0808   -16.2537 H          1  LIG1   0.1500
     34 H14       -17.0067    16.0856   -18.9852 H          1  LIG1   0.1600
     35 H15       -17.3536    17.8015   -18.6641 H          1  LIG1   0.1600
     36 H16       -17.3404    14.7091   -16.6925 H          1  LIG1   0.4100
     37 H17       -15.8694    16.3039   -14.6596 H          1  LIG1   0.0800
     38 H18       -17.0673    15.0587   -14.2322 H          1  LIG1   0.0800
     39 H19       -16.8737    12.8840   -15.1211 H          1  LIG1   0.0700
     40 H20       -15.6665    12.7145   -16.4340 H          1  LIG1   0.0700
     41 H21       -15.6012    10.9833   -14.3681 H          1  LIG1   0.0700
     42 H22       -14.0578    11.6741   -14.9694 H          1  LIG1   0.0700
     43 H23       -15.7406    12.5757   -12.5671 H          1  LIG1   0.0700
     44 H24       -13.9791    12.2555   -12.6305 H          1  LIG1   0.0800
     45 H25       -12.5236    13.8100   -14.3818 H          1  LIG1   0.1000
     46 H26       -11.7552    16.1868   -13.9383 H          1  LIG1   0.0900
     47 H27       -13.3857    16.5696   -13.1659 H          1  LIG1   0.0900
     48 H28       -12.9878    14.7631   -11.4303 H          1  LIG1   0.1000
     49 H29       -11.3573    14.3802   -12.2026 H          1  LIG1   0.1000
     50 H30       -19.4570    15.8554   -20.1771 H          1  LIG1   0.1400
     51 H31       -19.1839    17.6156   -19.9925 H          1  LIG1   0.1400
@<TRIPOS>BOND
     1    1    2 1
     2    1   24 1
     3    1   25 1
     4    1   26 1
     5    2   23 1
     6    2    3 1
     7    2    4 1
     8    3   27 1
     9    3   28 1
    10    3   29 1
    11    4    5 1
    12    4   30 1
    13    4   31 1
    14    5    6 1
    15    5   32 1
    16    5   33 1
    17    6    7 1
    18    6    8 1
    19    6   23 1
    20    8    9 1
    21    8   34 1
    22    8   35 1
    23    9   10 2
    24    9   11 am
    25   11   12 1
    26   11   36 1
    27   12   13 1
    28   12   37 1
    29   12   38 1
    30   13   14 1
    31   13   18 1
    32   13   15 1
    33   15   16 1
    34   15   39 1
    35   15   40 1
    36   16   17 1
    37   16   41 1
    38   16   42 1
    39   17   18 1
    40   17   43 1
    41   17   44 1
    42   18   19 1
    43   18   20 1
    44   20   22 1
    45   20   21 1
    46   20   45 1
    47   21   22 1
    48   21   46 1
    49   21   47 1
    50   22   48 1
    51   22   49 1
    52   23   50 1
    53   23   51 1
##########                 Name:     ZINC000488122558
##########          Protonation:                 none
##########               SMILES:   C[C@@H]1C[N@@H+](CC2=CN=CC(OCC3=CC=CC=C3)=C2)C[C@@H]1O
##########            Long Name:   NO_LONG_NAME
##########          FlexRecCode: 1
##########               Number:                  273
##########   Ligand Source File: /nfs/db/export/3D/CE/ADMO/CEADMO.xatj.db2.gz
##########                 Rank:                    1
##########               Setnum:                   84
##########             Matchnum:                    1
##########                Cloud:                    1
##########        Electrostatic:           -41.207047
##########                 Gist:             0.000000
##########        Van der Waals:           -32.904068
##########  Ligand Polar Desolv:            12.455276
########## Ligand Apolar Desolv:            -3.892553
##########      Internal Energy:             0.000000
##########      Receptor Energy:             0.000000
########## Receptor Desolvation:             0.000000
########## Receptor Hydrophobic:             0.000000
##########         Total Energy:           -65.548393
##########        Ligand Charge:             1.000000
##########            Arbitrary:    +999.9990
##########        Ligand Energy:             0.000000

@<TRIPOS>MOLECULE
 ZINC000488122558      none
   45    47     0     0     0



@<TRIPOS>ATOM
      1 C1        -21.7606    15.0920   -19.6065 C.3        1  LIG1  -0.1500
      2 C2        -21.2012    16.5151   -19.5501 C.3        1  LIG1  -0.1000
      3 H1        -21.7252    17.1552   -20.2598 H          1  LIG1   0.1200
      4 C3        -19.6910    16.5079   -19.8507 C.3        1  LIG1  -0.0100
      5 N1        -19.0056    17.0152   -18.6422 N.4        1  LIG1  -0.3900
      6 H2        -18.7273    16.2460   -18.0514 H          1  LIG1   0.4300
      7 C4        -17.8322    17.8130   -19.0225 C.3        1  LIG1   0.0500
      8 C5        -16.8880    17.9072   -17.8517 C.ar       1  LIG1  -0.1700
      9 C6        -16.3187    19.1189   -17.5084 C.ar       1  LIG1   0.0900
     10 N2        -15.4912    19.2126   -16.4860 N.ar       1  LIG1  -0.4400
     11 C7        -15.1731    18.1649   -15.7519 C.ar       1  LIG1   0.0500
     12 C8        -15.7044    16.9148   -16.0347 C.ar       1  LIG1   0.0900
     13 O1        -15.3731    15.8372   -15.2754 O.3        1  LIG1  -0.3000
     14 C9        -15.9633    14.5859   -15.6326 C.3        1  LIG1   0.1000
     15 C10       -15.4832    13.5158   -14.6864 C.ar       1  LIG1  -0.1100
     16 C11       -16.2935    12.4335   -14.3983 C.ar       1  LIG1  -0.0900
     17 C12       -15.8531    11.4521   -13.5302 C.ar       1  LIG1  -0.1200
     18 C13       -14.6023    11.5526   -12.9505 C.ar       1  LIG1  -0.1000
     19 C14       -13.7916    12.6344   -13.2393 C.ar       1  LIG1  -0.1200
     20 C15       -14.2302    13.6138   -14.1106 C.ar       1  LIG1  -0.0900
     21 C16       -16.5849    16.7810   -17.1032 C.ar       1  LIG1  -0.0900
     22 C17       -20.0000    17.8666   -17.9402 C.3        1  LIG1  -0.0400
     23 C18       -21.3276    17.0850   -18.1187 C.3        1  LIG1   0.0900
     24 H3        -22.1834    17.7558   -18.0423 H          1  LIG1   0.1100
     25 O2        -21.4266    16.0307   -17.1591 O.3        1  LIG1  -0.5500
     26 H4        -21.2280    14.4638   -18.8926 H          1  LIG1   0.0800
     27 H5        -22.8211    15.1084   -19.3557 H          1  LIG1   0.0700
     28 H6        -21.6309    14.6903   -20.6115 H          1  LIG1   0.0700
     29 H7        -19.3600    15.4920   -20.0664 H          1  LIG1   0.1400
     30 H8        -19.4780    17.1586   -20.6989 H          1  LIG1   0.1400
     31 H9        -17.3249    17.3360   -19.8609 H          1  LIG1   0.1400
     32 H10       -18.1519    18.8138   -19.3128 H          1  LIG1   0.1400
     33 H11       -16.5545    20.0007   -18.0855 H          1  LIG1   0.1600
     34 H12       -14.4917    18.2809   -14.9221 H          1  LIG1   0.1700
     35 H13       -17.0487    14.6651   -15.5709 H          1  LIG1   0.0800
     36 H14       -15.6754    14.3260   -16.6514 H          1  LIG1   0.0800
     37 H15       -17.2708    12.3550   -14.8512 H          1  LIG1   0.1200
     38 H16       -16.4865    10.6069   -13.3046 H          1  LIG1   0.1300
     39 H17       -14.2585    10.7860   -12.2716 H          1  LIG1   0.1300
     40 H18       -12.8144    12.7130   -12.7860 H          1  LIG1   0.1300
     41 H19       -13.5969    14.4590   -14.3362 H          1  LIG1   0.1200
     42 H20       -17.0151    15.8213   -17.3486 H          1  LIG1   0.1500
     43 H21       -19.7478    17.9613   -16.8840 H          1  LIG1   0.1400
     44 H22       -20.0665    18.8477   -18.4104 H          1  LIG1   0.1400
     45 H23       -20.6651    15.4348   -17.1495 H          1  LIG1   0.4000
@<TRIPOS>BOND
     1    1    2 1
     2    1   26 1
     3    1   27 1
     4    1   28 1
     5    2    3 1
     6    2   23 1
     7    2    4 1
     8    4    5 1
     9    4   29 1
    10    4   30 1
    11    5    6 1
    12    5    7 1
    13    5   22 1
    14    7    8 1
    15    7   31 1
    16    7   32 1
    17    8   21 ar
    18    8    9 ar
    19    9   10 ar
    20    9   33 1
    21   10   11 ar
    22   11   12 ar
    23   11   34 1
    24   12   13 1
    25   12   21 ar
    26   13   14 1
    27   14   15 1
    28   14   35 1
    29   14   36 1
    30   15   20 ar
    31   15   16 ar
    32   16   17 ar
    33   16   37 1
    34   17   18 ar
    35   17   38 1
    36   18   19 ar
    37   18   39 1
    38   19   20 ar
    39   19   40 1
    40   20   41 1
    41   21   42 1
    42   22   23 1
    43   22   43 1
    44   22   44 1
    45   23   24 1
    46   23   25 1
    47   25   45 1
##########                 Name:     ZINC000368074394
##########          Protonation:                 none
##########               SMILES:   C[C@H]1CC[C@@]2(CC[N@@H+](CC(=O)C3=C(N)N(C)C(=O)N(C)C3=O)C2)C1
##########            Long Name:   NO_LONG_NAME
##########          FlexRecCode: 1
##########               Number:                 3792
##########   Ligand Source File: /nfs/db/export/3D/EC/ADMO/ECADMO.xiw.db2.gz
##########                 Rank:                    1
##########               Setnum:                   32
##########             Matchnum:                    1
##########                Cloud:                    1
##########        Electrostatic:           -46.140068
##########                 Gist:             0.000000
##########        Van der Waals:           -30.226938
##########  Ligand Polar Desolv:            13.599075
########## Ligand Apolar Desolv:            -4.630695
##########      Internal Energy:             0.000000
##########      Receptor Energy:             0.000000
########## Receptor Desolvation:             0.000000
########## Receptor Hydrophobic:             0.000000
##########         Total Energy:           -67.398621
##########        Ligand Charge:             1.000000
##########            Arbitrary:    +999.9990
##########        Ligand Energy:             0.000000

@<TRIPOS>MOLECULE
 ZINC000368074394      none
   51    53     0     0     0



@<TRIPOS>ATOM
      1 C1        -22.5576    19.3245   -21.1084 C.3        1  LIG1  -0.1500
      2 C2        -22.2009    18.4290   -19.9203 C.3        1  LIG1  -0.1000
      3 H1        -22.7661    18.7257   -19.0368 H          1  LIG1   0.0800
      4 C3        -22.4705    16.9417   -20.2623 C.3        1  LIG1  -0.1200
      5 C4        -21.5266    16.1876   -19.2901 C.3        1  LIG1  -0.1200
      6 C5        -20.2691    17.0659   -19.2378 C.3        1  LIG1  -0.0800
      7 C6        -19.1901    16.5228   -20.1897 C.3        1  LIG1  -0.1300
      8 C7        -17.8811    16.7564   -19.3908 C.3        1  LIG1  -0.0100
      9 N1        -18.2834    16.4830   -17.9865 N.4        1  LIG1  -0.3900
     10 H2        -18.2979    15.4886   -17.8162 H          1  LIG1   0.4300
     11 C8        -17.3571    17.1431   -17.0568 C.3        1  LIG1  -0.0300
     12 C9        -17.4543    16.4898   -15.7023 C.2        1  LIG1   0.4300
     13 O1        -18.5126    16.4822   -15.1063 O.2        1  LIG1  -0.5100
     14 C10       -16.3158    15.8868   -15.1265 C.2        1  LIG1  -0.4700
     15 C11       -16.3031    14.5179   -14.8073 C.2        1  LIG1   0.5800
     16 N2        -17.3942    13.7416   -15.0482 N.pl3      1  LIG1  -0.7800
     17 N3        -15.1775    13.9795   -14.2518 N.am       1  LIG1  -0.5400
     18 C12       -15.1542    12.5537   -13.9160 C.3        1  LIG1   0.0600
     19 C13       -14.0922    14.7305   -14.0079 C.2        1  LIG1   0.7100
     20 O2        -13.1154    14.2038   -13.5122 O.2        1  LIG1  -0.5000
     21 N4        -14.0456    16.0421   -14.2917 N.am       1  LIG1  -0.5600
     22 C14       -12.8277    16.8023   -14.0001 C.3        1  LIG1   0.0700
     23 C15       -15.1039    16.6679   -14.8471 C.2        1  LIG1   0.5900
     24 O3        -15.0584    17.8569   -15.1036 O.2        1  LIG1  -0.5200
     25 C16       -19.6454    17.0464   -17.8389 C.3        1  LIG1   0.0000
     26 C17       -20.6835    18.4870   -19.6361 C.3        1  LIG1  -0.1100
     27 H3        -21.9844    19.0145   -21.9822 H          1  LIG1   0.0600
     28 H4        -23.6227    19.2368   -21.3228 H          1  LIG1   0.0600
     29 H5        -22.3199    20.3605   -20.8667 H          1  LIG1   0.0600
     30 H6        -23.5115    16.6836   -20.0674 H          1  LIG1   0.0800
     31 H7        -22.2067    16.7300   -21.2984 H          1  LIG1   0.0700
     32 H8        -21.9793    16.1092   -18.3017 H          1  LIG1   0.0800
     33 H9        -21.2862    15.1989   -19.6810 H          1  LIG1   0.0800
     34 H10       -19.3420    15.4604   -20.3803 H          1  LIG1   0.1000
     35 H11       -19.1789    17.0861   -21.1228 H          1  LIG1   0.1200
     36 H12       -17.1059    16.0603   -19.7111 H          1  LIG1   0.1400
     37 H13       -17.5428    17.7868   -19.5001 H          1  LIG1   0.1300
     38 H14       -16.3382    17.0509   -17.4325 H          1  LIG1   0.1700
     39 H15       -17.6187    18.1979   -16.9712 H          1  LIG1   0.1600
     40 H16       -18.1895    14.1321   -15.4433 H          1  LIG1   0.4400
     41 H17       -17.3770    12.7979   -14.8249 H          1  LIG1   0.4200
     42 H18       -14.1859    12.2976   -13.4856 H          1  LIG1   0.1000
     43 H19       -15.9414    12.3377   -13.1937 H          1  LIG1   0.1200
     44 H20       -15.3178    11.9650   -14.8186 H          1  LIG1   0.0900
     45 H21       -12.9696    17.8425   -14.2936 H          1  LIG1   0.1100
     46 H22       -12.6149    16.7520   -12.9323 H          1  LIG1   0.0900
     47 H23       -11.9925    16.3782   -14.5574 H          1  LIG1   0.0900
     48 H24       -19.5885    18.0599   -17.4417 H          1  LIG1   0.1400
     49 H25       -20.2387    16.4180   -17.1747 H          1  LIG1   0.1300
     50 H26       -20.1476    18.7957   -20.5336 H          1  LIG1   0.0800
     51 H27       -20.4781    19.1795   -18.8198 H          1  LIG1   0.0700
@<TRIPOS>BOND
     1    1    2 1
     2    1   27 1
     3    1   28 1
     4    1   29 1
     5    2    3 1
     6    2   26 1
     7    2    4 1
     8    4    5 1
     9    4   30 1
    10    4   31 1
    11    5    6 1
    12    5   32 1
    13    5   33 1
    14    6   25 1
    15    6    7 1
    16    6   26 1
    17    7    8 1
    18    7   34 1
    19    7   35 1
    20    8    9 1
    21    8   36 1
    22    8   37 1
    23    9   10 1
    24    9   11 1
    25    9   25 1
    26   11   12 1
    27   11   38 1
    28   11   39 1
    29   12   13 2
    30   12   14 1
    31   14   23 1
    32   14   15 2
    33   15   16 1
    34   15   17 1
    35   16   40 1
    36   16   41 1
    37   17   18 1
    38   17   19 am
    39   18   42 1
    40   18   43 1
    41   18   44 1
    42   19   20 2
    43   19   21 am
    44   21   22 1
    45   21   23 am
    46   22   45 1
    47   22   46 1
    48   22   47 1
    49   23   24 2
    50   25   48 1
    51   25   49 1
    52   26   50 1
    53   26   51 1
##########                 Name:     ZINC000290537631
##########          Protonation:                 none
##########               SMILES:   CSCC1=CC=CN=C1C(=O)N[C@@H]1C[N@@H+](C2CC2)C[C@@H]1C
##########            Long Name:   NO_LONG_NAME
##########          FlexRecCode: 1
##########               Number:                13099
##########   Ligand Source File: /nfs/db/export/3D/DE/ADRO/DEADRO.xaps.db2.gz
##########                 Rank:                    1
##########               Setnum:                   69
##########             Matchnum:                    1
##########                Cloud:                    1
##########        Electrostatic:           -38.852852
##########                 Gist:             0.000000
##########        Van der Waals:           -33.098145
##########  Ligand Polar Desolv:            12.260550
########## Ligand Apolar Desolv:            -5.060091
##########      Internal Energy:             0.000000
##########      Receptor Energy:             0.000000
########## Receptor Desolvation:             0.000000
########## Receptor Hydrophobic:             0.000000
##########         Total Energy:           -64.750534
##########        Ligand Charge:             1.000000
##########            Arbitrary:    +999.9990
##########        Ligand Energy:             0.000000

@<TRIPOS>MOLECULE
 ZINC000290537631      none
   45    47     0     0     0



@<TRIPOS>ATOM
      1 C1        -12.5626    14.7371   -11.5204 C.3        1  LIG1  -0.1200
      2 S1        -11.9696    14.6767   -13.2336 S.3        1  LIG1  -0.2400
      3 C2        -13.4037    15.2547   -14.1825 C.3        1  LIG1  -0.0600
      4 C3        -14.3856    14.1236   -14.3476 C.ar       1  LIG1  -0.0600
      5 C4        -14.1197    12.8770   -13.8035 C.ar       1  LIG1  -0.0600
      6 C5        -15.0518    11.8660   -13.9799 C.ar       1  LIG1  -0.1300
      7 C6        -16.2127    12.1288   -14.6894 C.ar       1  LIG1   0.1000
      8 N1        -16.4399    13.3214   -15.1953 N.ar       1  LIG1  -0.4600
      9 C7        -15.5761    14.3177   -15.0446 C.ar       1  LIG1   0.0700
     10 C8        -15.8755    15.6446   -15.6324 C.2        1  LIG1   0.5800
     11 O1        -15.0838    16.5577   -15.5053 O.2        1  LIG1  -0.4900
     12 N2        -17.0254    15.8386   -16.3078 N.am       1  LIG1  -0.7200
     13 C9        -17.3212    17.1504   -16.8889 C.3        1  LIG1   0.1300
     14 H1        -16.8621    17.9442   -16.2996 H          1  LIG1   0.1500
     15 C10       -18.8512    17.3671   -17.0028 C.3        1  LIG1  -0.0100
     16 N3        -19.2068    16.6336   -18.2444 N.4        1  LIG1  -0.3700
     17 H2        -19.2773    15.6447   -18.0562 H          1  LIG1   0.4200
     18 C11       -20.4759    17.1385   -18.7852 C.3        1  LIG1  -0.0800
     19 C12       -21.3672    16.1480   -19.5372 C.3        1  LIG1  -0.1500
     20 C13       -21.7689    16.6322   -18.1425 C.3        1  LIG1  -0.1500
     21 C14       -18.1054    16.8944   -19.1963 C.3        1  LIG1  -0.0100
     22 C15       -16.8480    17.2168   -18.3591 C.3        1  LIG1  -0.1100
     23 H3        -16.4814    18.2156   -18.5963 H          1  LIG1   0.1300
     24 C16       -15.7566    16.1762   -18.6177 C.3        1  LIG1  -0.1500
     25 H4        -11.7701    14.4052   -10.8496 H          1  LIG1   0.0800
     26 H5        -12.8465    15.7592   -11.2699 H          1  LIG1   0.0800
     27 H6        -13.4278    14.0829   -11.4122 H          1  LIG1   0.1000
     28 H7        -13.8829    16.0773   -13.6516 H          1  LIG1   0.1200
     29 H8        -13.0758    15.5974   -15.1638 H          1  LIG1   0.0900
     30 H9        -13.2071    12.6973   -13.2548 H          1  LIG1   0.1500
     31 H10       -14.8746    10.8833   -13.5687 H          1  LIG1   0.1500
     32 H11       -16.9408    11.3435   -14.8290 H          1  LIG1   0.1700
     33 H12       -17.6572    15.1095   -16.4092 H          1  LIG1   0.4100
     34 H13       -19.3655    16.9390   -16.1422 H          1  LIG1   0.1400
     35 H14       -19.0831    18.4275   -17.1026 H          1  LIG1   0.1500
     36 H15       -20.4595    18.1697   -19.1380 H          1  LIG1   0.1800
     37 H16       -21.9373    16.5276   -20.3852 H          1  LIG1   0.1300
     38 H17       -21.0119    15.1219   -19.6308 H          1  LIG1   0.1200
     39 H18       -21.6779    15.9245   -17.3185 H          1  LIG1   0.1200
     40 H19       -22.6032    17.3302   -18.0730 H          1  LIG1   0.1300
     41 H20       -17.9269    16.0107   -19.8089 H          1  LIG1   0.1300
     42 H21       -18.3564    17.7446   -19.8306 H          1  LIG1   0.1400
     43 H22       -15.4354    16.2373   -19.6574 H          1  LIG1   0.0800
     44 H23       -14.9071    16.3704   -17.9629 H          1  LIG1   0.0800
     45 H24       -16.1500    15.1796   -18.4167 H          1  LIG1   0.0600
@<TRIPOS>BOND
     1    1    2 1
     2    1   25 1
     3    1   26 1
     4    1   27 1
     5    2    3 1
     6    3    4 1
     7    3   28 1
     8    3   29 1
     9    4    9 ar
    10    4    5 ar
    11    5    6 ar
    12    5   30 1
    13    6    7 ar
    14    6   31 1
    15    7    8 ar
    16    7   32 1
    17    8    9 ar
    18    9   10 1
    19   10   11 2
    20   10   12 am
    21   12   13 1
    22   12   33 1
    23   13   14 1
    24   13   22 1
    25   13   15 1
    26   15   16 1
    27   15   34 1
    28   15   35 1
    29   16   17 1
    30   16   18 1
    31   16   21 1
    32   18   20 1
    33   18   19 1
    34   18   36 1
    35   19   20 1
    36   19   37 1
    37   19   38 1
    38   20   39 1
    39   20   40 1
    40   21   22 1
    41   21   41 1
    42   21   42 1
    43   22   23 1
    44   22   24 1
    45   24   43 1
    46   24   44 1
    47   24   45 1
##########                 Name:     ZINC000072898724
##########          Protonation:                 none
##########               SMILES:   CC(=O)C1=CC=C(NC(=O)[C@@H](C)[N@H+]2CCC3(C2)CCOCC3)C=C1
##########            Long Name:   NO_LONG_NAME
##########          FlexRecCode: 1
##########               Number:                 3158
##########   Ligand Source File: /nfs/db/export/3D/EF/ADMO/EFADMO.xbog.db2.gz
##########                 Rank:                    1
##########               Setnum:                   23
##########             Matchnum:                    1
##########                Cloud:                    1
##########        Electrostatic:           -48.998199
##########                 Gist:             0.000000
##########        Van der Waals:           -31.594240
##########  Ligand Polar Desolv:            18.584578
########## Ligand Apolar Desolv:            -4.445109
##########      Internal Energy:             0.000000
##########      Receptor Energy:             0.000000
########## Receptor Desolvation:             0.000000
########## Receptor Hydrophobic:             0.000000
##########         Total Energy:           -66.452972
##########        Ligand Charge:             1.000000
##########            Arbitrary:    +999.9990
##########        Ligand Energy:             0.000000

@<TRIPOS>MOLECULE
 ZINC000072898724      none
   51    53     0     0     0



@<TRIPOS>ATOM
      1 C1        -13.4005    14.2524   -11.7869 C.3        1  LIG1  -0.2000
      2 C2        -13.0099    14.9676   -13.0546 C.2        1  LIG1   0.3900
      3 O1        -11.8811    15.3908   -13.1891 O.2        1  LIG1  -0.4500
      4 C3        -13.9959    15.1521   -14.1272 C.ar       1  LIG1  -0.1700
      5 C4        -13.9118    16.2639   -14.9750 C.ar       1  LIG1  -0.0500
      6 C5        -14.8343    16.4319   -15.9749 C.ar       1  LIG1  -0.1300
      7 C6        -15.8539    15.5001   -16.1481 C.ar       1  LIG1   0.1500
      8 N1        -16.7893    15.6749   -17.1657 N.am       1  LIG1  -0.6400
      9 C7        -17.1176    16.9171   -17.5729 C.2        1  LIG1   0.5100
     10 O2        -16.5988    17.8824   -17.0535 O.2        1  LIG1  -0.5000
     11 C8        -18.1294    17.1064   -18.6736 C.3        1  LIG1   0.0100
     12 H1        -18.2640    18.1711   -18.8642 H          1  LIG1   0.1600
     13 C9        -17.6321    16.4192   -19.9469 C.3        1  LIG1  -0.1800
     14 N2        -19.4114    16.5157   -18.2670 N.4        1  LIG1  -0.3800
     15 H2        -19.2992    15.5292   -18.0877 H          1  LIG1   0.4300
     16 C10       -19.9297    17.2010   -17.0549 C.3        1  LIG1  -0.0100
     17 C11       -21.4500    16.8997   -17.0978 C.3        1  LIG1  -0.1300
     18 C12       -21.7683    16.9622   -18.6044 C.3        1  LIG1  -0.0700
     19 C13       -20.4290    16.7304   -19.3204 C.3        1  LIG1  -0.0100
     20 C14       -22.7632    15.8657   -18.9748 C.3        1  LIG1  -0.1500
     21 C15       -23.1173    15.9879   -20.4604 C.3        1  LIG1   0.0500
     22 O3        -23.6300    17.2966   -20.7186 O.3        1  LIG1  -0.3700
     23 C16       -22.7051    18.3522   -20.4494 C.3        1  LIG1   0.0500
     24 C17       -22.3326    18.3339   -18.9635 C.3        1  LIG1  -0.1500
     25 C18       -15.9414    14.3934   -15.3078 C.ar       1  LIG1  -0.1400
     26 C19       -15.0197    14.2139   -14.3091 C.ar       1  LIG1  -0.0400
     27 H3        -14.4451    13.9476   -11.8488 H          1  LIG1   0.1000
     28 H4        -12.7720    13.3713   -11.6585 H          1  LIG1   0.0900
     29 H5        -13.2669    14.9212   -10.9366 H          1  LIG1   0.0900
     30 H6        -13.1216    16.9877   -14.8408 H          1  LIG1   0.1400
     31 H7        -14.7702    17.2888   -16.6291 H          1  LIG1   0.1400
     32 H8        -17.2041    14.9029   -17.5810 H          1  LIG1   0.4200
     33 H9        -18.3638    16.5561   -20.7432 H          1  LIG1   0.0900
     34 H10       -16.6808    16.8575   -20.2484 H          1  LIG1   0.1000
     35 H11       -17.4974    15.3545   -19.7563 H          1  LIG1   0.1100
     36 H12       -19.4800    16.7822   -16.1546 H          1  LIG1   0.1500
     37 H13       -19.7486    18.2743   -17.1129 H          1  LIG1   0.1300
     38 H14       -21.6582    15.9065   -16.6999 H          1  LIG1   0.1000
     39 H15       -22.0098    17.6600   -16.5531 H          1  LIG1   0.1200
     40 H16       -20.1687    17.6055   -19.9158 H          1  LIG1   0.1400
     41 H17       -20.4964    15.8507   -19.9605 H          1  LIG1   0.1400
     42 H18       -22.3163    14.8896   -18.7861 H          1  LIG1   0.0800
     43 H19       -23.6665    15.9757   -18.3749 H          1  LIG1   0.1000
     44 H20       -22.2238    15.8221   -21.0622 H          1  LIG1   0.0500
     45 H21       -23.8722    15.2445   -20.7165 H          1  LIG1   0.1100
     46 H22       -21.8072    18.2112   -21.0512 H          1  LIG1   0.0500
     47 H23       -23.1632    19.3095   -20.6978 H          1  LIG1   0.1100
     48 H24       -23.2207    18.5309   -18.3630 H          1  LIG1   0.1000
     49 H25       -21.5819    19.0994   -18.7668 H          1  LIG1   0.0800
     50 H26       -16.7341    13.6730   -15.4458 H          1  LIG1   0.1400
     51 H27       -15.0884    13.3552   -13.6577 H          1  LIG1   0.1500
@<TRIPOS>BOND
     1    1    2 1
     2    1   27 1
     3    1   28 1
     4    1   29 1
     5    2    3 2
     6    2    4 1
     7    4   26 ar
     8    4    5 ar
     9    5    6 ar
    10    5   30 1
    11    6    7 ar
    12    6   31 1
    13    7    8 1
    14    7   25 ar
    15    8    9 am
    16    8   32 1
    17    9   10 2
    18    9   11 1
    19   11   12 1
    20   11   13 1
    21   11   14 1
    22   13   33 1
    23   13   34 1
    24   13   35 1
    25   14   15 1
    26   14   19 1
    27   14   16 1
    28   16   17 1
    29   16   36 1
    30   16   37 1
    31   17   18 1
    32   17   38 1
    33   17   39 1
    34   18   24 1
    35   18   19 1
    36   18   20 1
    37   19   40 1
    38   19   41 1
    39   20   21 1
    40   20   42 1
    41   20   43 1
    42   21   22 1
    43   21   44 1
    44   21   45 1
    45   22   23 1
    46   23   24 1
    47   23   46 1
    48   23   47 1
    49   24   48 1
    50   24   49 1
    51   25   26 ar
    52   25   50 1
    53   26   51 1
##########                 Name:     ZINC000419278537
##########          Protonation:                 none
##########               SMILES:   CC[C@]1(O)CC[N@H+](CC2=NOC(C3=CC=CC=C3Cl)=C2)C1
##########            Long Name:   NO_LONG_NAME
##########          FlexRecCode: 1
##########               Number:                 4987
##########   Ligand Source File: /nfs/db/export/3D/DG/ADRO/DGADRO.xbvz.db2.gz
##########                 Rank:                    1
##########               Setnum:                  401
##########             Matchnum:                    1
##########                Cloud:                    1
##########        Electrostatic:           -44.626610
##########                 Gist:             0.000000
##########        Van der Waals:           -29.525986
##########  Ligand Polar Desolv:            12.677626
########## Ligand Apolar Desolv:            -4.497347
##########      Internal Energy:             0.000000
##########      Receptor Energy:             0.000000
########## Receptor Desolvation:             0.000000
########## Receptor Hydrophobic:             0.000000
##########         Total Energy:           -65.972321
##########        Ligand Charge:             1.000000
##########            Arbitrary:    +999.9990
##########        Ligand Energy:             0.000000

@<TRIPOS>MOLECULE
 ZINC000419278537      none
   41    43     0     0     0



@<TRIPOS>ATOM
      1 C1        -22.3761    17.8458   -20.0036 C.3        1  LIG1  -0.1600
      2 C2        -20.9031    17.5454   -20.2886 C.3        1  LIG1  -0.1400
      3 C3        -20.2787    16.8565   -19.0736 C.3        1  LIG1   0.1200
      4 O1        -21.0050    15.6748   -18.7291 O.3        1  LIG1  -0.5500
      5 C4        -20.1923    17.8281   -17.8673 C.3        1  LIG1  -0.1700
      6 C5        -19.0086    17.2660   -17.0522 C.3        1  LIG1  -0.0100
      7 N1        -18.1804    16.4702   -17.9768 N.4        1  LIG1  -0.3900
      8 H1        -18.1492    15.5111   -17.6649 H          1  LIG1   0.4300
      9 C6        -16.8195    17.0215   -18.0205 C.3        1  LIG1   0.0900
     10 C7        -16.0460    16.5461   -16.8176 C.2        1  LIG1  -0.0500
     11 N2        -15.2865    17.2692   -16.0447 N.2        1  LIG1  -0.3300
     12 O2        -14.7927    16.6145   -15.1564 O.3        1  LIG1   0.1500
     13 C8        -15.1728    15.3262   -15.2252 C.2        1  LIG1   0.0500
     14 C9        -14.7747    14.2329   -14.3137 C.ar       1  LIG1  -0.0500
     15 C10       -15.2523    12.9383   -14.5213 C.ar       1  LIG1  -0.0700
     16 C11       -14.8766    11.9221   -13.6671 C.ar       1  LIG1  -0.1100
     17 C12       -14.0285    12.1836   -12.6058 C.ar       1  LIG1  -0.0800
     18 C13       -13.5512    13.4645   -12.3928 C.ar       1  LIG1  -0.1100
     19 C14       -13.9141    14.4897   -13.2436 C.ar       1  LIG1  -0.0100
     20 Cl1       -13.3144    16.0967   -12.9754 Cl         1  LIG1  -0.0500
     21 C15       -16.0080    15.2331   -16.3054 C.2        1  LIG1  -0.2000
     22 C16       -18.7841    16.5357   -19.3247 C.3        1  LIG1   0.0000
     23 H2        -22.8208    18.3366   -20.8693 H          1  LIG1   0.0600
     24 H3        -22.9046    16.9139   -19.8028 H          1  LIG1   0.0700
     25 H4        -22.4520    18.5008   -19.1357 H          1  LIG1   0.0600
     26 H5        -20.8272    16.8903   -21.1565 H          1  LIG1   0.0900
     27 H6        -20.3745    18.4773   -20.4893 H          1  LIG1   0.0900
     28 H7        -20.6477    15.2026   -17.9646 H          1  LIG1   0.4000
     29 H8        -19.9809    18.8429   -18.2041 H          1  LIG1   0.1100
     30 H9        -21.1115    17.7987   -17.2822 H          1  LIG1   0.1200
     31 H10       -18.4204    18.0855   -16.6392 H          1  LIG1   0.1400
     32 H11       -19.3804    16.6314   -16.2478 H          1  LIG1   0.1300
     33 H12       -16.3204    16.6856   -18.9294 H          1  LIG1   0.1500
     34 H13       -16.8682    18.1105   -18.0140 H          1  LIG1   0.1500
     35 H14       -15.9150    12.7323   -15.3488 H          1  LIG1   0.1400
     36 H15       -15.2457    10.9197   -13.8271 H          1  LIG1   0.1400
     37 H16       -13.7381    11.3843   -11.9401 H          1  LIG1   0.1500
     38 H17       -12.8897    13.6620   -11.5622 H          1  LIG1   0.1500
     39 H18       -16.5142    14.3565   -16.6819 H          1  LIG1   0.1900
     40 H19       -18.6820    15.5771   -19.8333 H          1  LIG1   0.1500
     41 H20       -18.3192    17.3286   -19.9107 H          1  LIG1   0.1500
@<TRIPOS>BOND
     1    1    2 1
     2    1   23 1
     3    1   24 1
     4    1   25 1
     5    2    3 1
     6    2   26 1
     7    2   27 1
     8    3   22 1
     9    3    4 1
    10    3    5 1
    11    4   28 1
    12    5    6 1
    13    5   29 1
    14    5   30 1
    15    6    7 1
    16    6   31 1
    17    6   32 1
    18    7    8 1
    19    7    9 1
    20    7   22 1
    21    9   10 1
    22    9   33 1
    23    9   34 1
    24   10   21 1
    25   10   11 2
    26   11   12 1
    27   12   13 1
    28   13   14 1
    29   13   21 2
    30   14   19 ar
    31   14   15 ar
    32   15   16 ar
    33   15   35 1
    34   16   17 ar
    35   16   36 1
    36   17   18 ar
    37   17   37 1
    38   18   19 ar
    39   18   38 1
    40   19   20 1
    41   21   39 1
    42   22   40 1
    43   22   41 1
##########                 Name:     ZINC000280696398
##########          Protonation:                 none
##########               SMILES:   COC1=CC(NC(=O)[C@@H](C2CC2)[NH+]2CCCC2)=CC(N2C=CC=N2)=C1
##########            Long Name:   NO_LONG_NAME
##########          FlexRecCode: 1
##########               Number:                 1992
##########   Ligand Source File: /nfs/db/export/3D/EF/ADRO/EFADRO.xbnc.db2.gz
##########                 Rank:                    1
##########               Setnum:                   36
##########             Matchnum:                    1
##########                Cloud:                    1
##########        Electrostatic:           -46.205338
##########                 Gist:             0.000000
##########        Van der Waals:           -33.319725
##########  Ligand Polar Desolv:            14.705595
########## Ligand Apolar Desolv:            -5.038637
##########      Internal Energy:             0.000000
##########      Receptor Energy:             0.000000
########## Receptor Desolvation:             0.000000
########## Receptor Hydrophobic:             0.000000
##########         Total Energy:           -69.858109
##########        Ligand Charge:             1.000000
##########            Arbitrary:    +999.9990
##########        Ligand Energy:             0.000000

@<TRIPOS>MOLECULE
 ZINC000280696398      none
   50    53     0     0     0



@<TRIPOS>ATOM
      1 C1        -13.6397    18.9435   -15.1118 C.3        1  LIG1   0.0300
      2 O1        -13.5323    17.7234   -14.3758 O.3        1  LIG1  -0.3000
      3 C2        -14.3599    16.7086   -14.7395 C.ar       1  LIG1   0.1800
      4 C3        -15.2516    16.8831   -15.7866 C.ar       1  LIG1  -0.2200
      5 C4        -16.0972    15.8468   -16.1586 C.ar       1  LIG1   0.1900
      6 N1        -16.9971    16.0229   -17.2154 N.am       1  LIG1  -0.6400
      7 C5        -17.4978    17.2466   -17.4773 C.2        1  LIG1   0.5100
      8 O2        -17.1682    18.1950   -16.7969 O.2        1  LIG1  -0.5000
      9 C6        -18.4671    17.4363   -18.6155 C.3        1  LIG1   0.0500
     10 H1        -18.7600    18.4846   -18.6724 H          1  LIG1   0.1600
     11 C7        -17.7997    17.0213   -19.9283 C.3        1  LIG1  -0.2100
     12 C8        -17.8482    18.0152   -21.0905 C.3        1  LIG1  -0.1600
     13 C9        -16.5339    17.7726   -20.3457 C.3        1  LIG1  -0.1500
     14 N2        -19.6789    16.5922   -18.3840 N.4        1  LIG1  -0.3800
     15 H2        -19.3575    15.5814   -18.3342 H          1  LIG1   0.4300
     16 C10       -20.4067    16.8850   -17.0845 C.3        1  LIG1  -0.0100
     17 C11       -21.8396    17.1744   -17.4958 C.3        1  LIG1  -0.1400
     18 C12       -22.0106    16.4127   -18.7948 C.3        1  LIG1  -0.1400
     19 C13       -20.6963    16.6664   -19.5013 C.3        1  LIG1   0.0000
     20 C14       -16.0493    14.6359   -15.4823 C.ar       1  LIG1  -0.1700
     21 C15       -15.1561    14.4618   -14.4346 C.ar       1  LIG1   0.2300
     22 N3        -15.1069    13.2388   -13.7513 N.pl3      1  LIG1  -0.3300
     23 C16       -15.8652    12.1502   -14.0125 C.2        1  LIG1   0.0600
     24 C17       -15.5136    11.1830   -13.1339 C.2        1  LIG1  -0.2500
     25 C18       -14.5074    11.6963   -12.3081 C.2        1  LIG1   0.0700
     26 N4        -14.2591    12.9261   -12.6809 N.2        1  LIG1  -0.2900
     27 C19       -14.3080    15.4968   -14.0668 C.ar       1  LIG1  -0.1800
     28 H3        -12.9253    19.6679   -14.7205 H          1  LIG1   0.0600
     29 H4        -13.4255    18.7535   -16.1635 H          1  LIG1   0.1100
     30 H5        -14.6502    19.3399   -15.0126 H          1  LIG1   0.0600
     31 H6        -15.2886    17.8256   -16.3128 H          1  LIG1   0.1500
     32 H7        -17.2607    15.2644   -17.7596 H          1  LIG1   0.4200
     33 H8        -17.8579    15.9600   -20.1704 H          1  LIG1   0.1400
     34 H9        -17.9385    17.6080   -22.0975 H          1  LIG1   0.1200
     35 H10       -18.3555    18.9647   -20.9199 H          1  LIG1   0.1100
     36 H11       -16.1765    18.5625   -19.6850 H          1  LIG1   0.1100
     37 H12       -15.7596    17.2057   -20.8627 H          1  LIG1   0.1200
     38 H13       -20.3412    16.0091   -16.4277 H          1  LIG1   0.1400
     39 H14       -19.9414    17.7496   -16.5959 H          1  LIG1   0.1300
     40 H15       -22.5484    16.8150   -16.7326 H          1  LIG1   0.1000
     41 H16       -21.9945    18.2543   -17.6497 H          1  LIG1   0.1200
     42 H17       -22.1457    15.3513   -18.6054 H          1  LIG1   0.1100
     43 H18       -22.8409    16.8121   -19.3707 H          1  LIG1   0.1100
     44 H19       -20.6685    17.6503   -19.9337 H          1  LIG1   0.1300
     45 H20       -20.4844    15.8968   -20.2213 H          1  LIG1   0.1400
     46 H21       -16.7071    13.8296   -15.7710 H          1  LIG1   0.1500
     47 H22       -16.6169    12.0674   -14.7837 H          1  LIG1   0.1800
     48 H23       -15.9354    10.1903   -13.0791 H          1  LIG1   0.1600
     49 H24       -14.0170    11.1674   -11.5042 H          1  LIG1   0.2000
     50 H25       -13.6129    15.3614   -13.2514 H          1  LIG1   0.1500
@<TRIPOS>BOND
     1    1    2 1
     2    1   28 1
     3    1   29 1
     4    1   30 1
     5    2    3 1
     6    3   27 ar
     7    3    4 ar
     8    4    5 ar
     9    4   31 1
    10    5    6 1
    11    5   20 ar
    12    6    7 am
    13    6   32 1
    14    7    8 2
    15    7    9 1
    16    9   10 1
    17    9   11 1
    18    9   14 1
    19   11   13 1
    20   11   12 1
    21   11   33 1
    22   12   13 1
    23   12   34 1
    24   12   35 1
    25   13   36 1
    26   13   37 1
    27   14   15 1
    28   14   19 1
    29   14   16 1
    30   16   17 1
    31   16   38 1
    32   16   39 1
    33   17   18 1
    34   17   40 1
    35   17   41 1
    36   18   19 1
    37   18   42 1
    38   18   43 1
    39   19   44 1
    40   19   45 1
    41   20   21 ar
    42   20   46 1
    43   21   22 1
    44   21   27 ar
    45   22   26 1
    46   22   23 1
    47   23   24 2
    48   23   47 1
    49   24   25 1
    50   24   48 1
    51   25   26 2
    52   25   49 1
    53   27   50 1
##########                 Name:     ZINC000451246180
##########          Protonation:                 none
##########               SMILES:   CC1(C)OCC[C@H]1[NH2+][C@@H]1CCN(C2=CC=C(Cl)C=C2Cl)C1=O
##########            Long Name:   NO_LONG_NAME
##########          FlexRecCode: 1
##########               Number:                 6970
##########   Ligand Source File: /nfs/db/export/3D/EG/ADRO/EGADRO.xaqr.db2.gz
##########                 Rank:                    1
##########               Setnum:                   23
##########             Matchnum:                    1
##########                Cloud:                    1
##########        Electrostatic:           -41.961151
##########                 Gist:             0.000000
##########        Van der Waals:           -31.936735
##########  Ligand Polar Desolv:            14.471622
########## Ligand Apolar Desolv:            -4.561378
##########      Internal Energy:             0.000000
##########      Receptor Energy:             0.000000
########## Receptor Desolvation:             0.000000
########## Receptor Hydrophobic:             0.000000
##########         Total Energy:           -63.987644
##########        Ligand Charge:             1.000000
##########            Arbitrary:    +999.9990
##########        Ligand Energy:             0.000000

@<TRIPOS>MOLECULE
 ZINC000451246180      none
   43    45     0     0     0



@<TRIPOS>ATOM
      1 C1        -22.1487    17.2661   -17.9498 C.3        1  LIG1  -0.1800
      2 C2        -21.4430    16.6847   -19.1813 C.3        1  LIG1   0.1000
      3 C3        -21.7910    15.2040   -19.3231 C.3        1  LIG1  -0.1700
      4 O1        -21.9708    17.3894   -20.3304 O.3        1  LIG1  -0.3400
      5 C4        -20.9522    18.2498   -20.8653 C.3        1  LIG1   0.0500
      6 C5        -19.8282    18.2969   -19.8515 C.3        1  LIG1  -0.1700
      7 C6        -19.9318    16.9225   -19.2388 C.3        1  LIG1  -0.0100
      8 H1        -19.4661    16.1741   -19.9196 H          1  LIG1   0.1600
      9 N1        -19.2656    16.8665   -17.9275 N.4        1  LIG1  -0.4900
     10 H2        -19.8456    17.3175   -17.2360 H          1  LIG1   0.4400
     11 H3        -19.1180    15.9031   -17.6662 H          1  LIG1   0.4300
     12 C7        -17.9711    17.5564   -18.0060 C.3        1  LIG1  -0.0100
     13 H4        -18.1124    18.5997   -18.2877 H          1  LIG1   0.1800
     14 C8        -17.0391    16.8452   -19.0144 C.3        1  LIG1  -0.1400
     15 C9        -16.2432    15.8955   -18.0920 C.3        1  LIG1   0.0800
     16 N2        -16.2719    16.5229   -16.7655 N.am       1  LIG1  -0.5600
     17 C10       -15.4055    16.1926   -15.7163 C.ar       1  LIG1   0.1300
     18 C11       -15.3753    14.8961   -15.2215 C.ar       1  LIG1  -0.0800
     19 C12       -14.5193    14.5726   -14.1864 C.ar       1  LIG1  -0.0900
     20 C13       -13.6922    15.5392   -13.6426 C.ar       1  LIG1  -0.0100
     21 Cl1       -12.6176    15.1285   -12.3425 Cl         1  LIG1  -0.0300
     22 C14       -13.7197    16.8330   -14.1335 C.ar       1  LIG1  -0.0900
     23 C15       -14.5701    17.1610   -15.1721 C.ar       1  LIG1  -0.0100
     24 Cl2       -14.6043    18.7838   -15.7877 Cl         1  LIG1  -0.0500
     25 C16       -17.2380    17.4588   -16.6863 C.2        1  LIG1   0.5000
     26 O2        -17.4828    18.1230   -15.7014 O.2        1  LIG1  -0.4600
     27 H5        -23.2145    17.0444   -18.0031 H          1  LIG1   0.0700
     28 H6        -21.7297    16.8212   -17.0472 H          1  LIG1   0.1100
     29 H7        -22.0031    18.3460   -17.9236 H          1  LIG1   0.0800
     30 H8        -21.2877    14.7948   -20.1991 H          1  LIG1   0.0900
     31 H9        -21.4643    14.6672   -18.4325 H          1  LIG1   0.0800
     32 H10       -22.8691    15.0936   -19.4388 H          1  LIG1   0.0800
     33 H11       -20.5959    17.8523   -21.8382 H          1  LIG1   0.0800
     34 H12       -21.3703    19.2619   -21.0453 H          1  LIG1   0.1200
     35 H13       -18.8590    18.4457   -20.3393 H          1  LIG1   0.1200
     36 H14       -19.9977    19.0813   -19.1063 H          1  LIG1   0.1000
     37 H15       -17.6157    16.2828   -19.7489 H          1  LIG1   0.1200
     38 H16       -16.3769    17.5592   -19.5041 H          1  LIG1   0.1400
     39 H17       -16.7206    14.9163   -18.0565 H          1  LIG1   0.0900
     40 H18       -15.2154    15.8024   -18.4430 H          1  LIG1   0.1100
     41 H19       -16.0208    14.1409   -15.6450 H          1  LIG1   0.1500
     42 H20       -14.4960    13.5639   -13.8011 H          1  LIG1   0.1600
     43 H21       -13.0733    17.5858   -13.7070 H          1  LIG1   0.1600
@<TRIPOS>BOND
     1    1    2 1
     2    1   27 1
     3    1   28 1
     4    1   29 1
     5    2    7 1
     6    2    3 1
     7    2    4 1
     8    3   30 1
     9    3   31 1
    10    3   32 1
    11    4    5 1
    12    5    6 1
    13    5   33 1
    14    5   34 1
    15    6    7 1
    16    6   35 1
    17    6   36 1
    18    7    8 1
    19    7    9 1
    20    9   10 1
    21    9   11 1
    22    9   12 1
    23   12   13 1
    24   12   25 1
    25   12   14 1
    26   14   15 1
    27   14   37 1
    28   14   38 1
    29   15   16 1
    30   15   39 1
    31   15   40 1
    32   16   17 1
    33   16   25 am
    34   17   23 ar
    35   17   18 ar
    36   18   19 ar
    37   18   41 1
    38   19   20 ar
    39   19   42 1
    40   20   21 1
    41   20   22 ar
    42   22   23 ar
    43   22   43 1
    44   23   24 1
    45   25   26 2
##########                 Name:     ZINC000302699560
##########          Protonation:                 none
##########               SMILES:   Cc1ccc(C[C@@H](CO)CNc2cc(-n3cccn3)nc(N)[nH+]2)cc1
##########            Long Name:   NO_LONG_NAME
##########          FlexRecCode: 1
##########               Number:                 8524
##########   Ligand Source File: /nfs/db/export/3D/ED/ADRO/EDADRO.xdgz.db2.gz
##########                 Rank:                    1
##########               Setnum:                  329
##########             Matchnum:                    1
##########                Cloud:                    1
##########        Electrostatic:           -42.852688
##########                 Gist:             0.000000
##########        Van der Waals:           -33.239704
##########  Ligand Polar Desolv:             9.112173
########## Ligand Apolar Desolv:            -3.745836
##########      Internal Energy:             0.000000
##########      Receptor Energy:             0.000000
########## Receptor Desolvation:             0.000000
########## Receptor Hydrophobic:             0.000000
##########         Total Energy:           -70.726051
##########        Ligand Charge:             1.000000
##########            Arbitrary:    +999.9990
##########        Ligand Energy:             0.000000

@<TRIPOS>MOLECULE
 ZINC000302699560      none
   48    50     0     0     0



@<TRIPOS>ATOM
      1 C1        -15.8634    20.4910   -23.0190 C.3        1  LIG1  -0.1200
      2 C2        -17.0458    19.6851   -22.5462 C.ar       1  LIG1  -0.0800
      3 C3        -18.3298    20.1022   -22.8434 C.ar       1  LIG1  -0.1200
      4 C4        -19.4144    19.3630   -22.4098 C.ar       1  LIG1  -0.1100
      5 C5        -19.2150    18.2064   -21.6792 C.ar       1  LIG1  -0.1000
      6 C6        -20.3974    17.4009   -21.2061 C.3        1  LIG1  -0.0700
      7 C7        -20.8301    17.8937   -19.8238 C.3        1  LIG1  -0.1000
      8 H1        -20.7658    18.9813   -19.7894 H          1  LIG1   0.1000
      9 C8        -22.2726    17.4595   -19.5561 C.3        1  LIG1   0.0700
     10 O1        -22.6768    17.9199   -18.2650 O.3        1  LIG1  -0.5900
     11 C9        -19.9108    17.2943   -18.7578 C.3        1  LIG1   0.1100
     12 N1        -18.6600    18.0555   -18.7077 N.pl3      1  LIG1  -0.6600
     13 C10       -17.6657    17.6964   -17.8116 C.ar       1  LIG1   0.5100
     14 C11       -16.6806    18.6116   -17.4457 C.ar       1  LIG1  -0.3100
     15 C12       -15.7042    18.2070   -16.5439 C.ar       1  LIG1   0.5500
     16 N2        -14.6978    19.0902   -16.1483 N.pl3      1  LIG1  -0.3400
     17 C13       -13.6872    18.8164   -15.2821 C.2        1  LIG1   0.0700
     18 C14       -12.9315    19.9323   -15.1691 C.2        1  LIG1  -0.2300
     19 C15       -13.4931    20.9190   -15.9881 C.2        1  LIG1   0.1000
     20 N3        -14.5460    20.4148   -16.5781 N.2        1  LIG1  -0.2800
     21 N4        -15.7407    16.9682   -16.0620 N.ar       1  LIG1  -0.5800
     22 C16       -16.6918    16.1237   -16.4314 C.ar       1  LIG1   0.6900
     23 N5        -16.6964    14.8428   -15.9076 N.pl3      1  LIG1  -0.7900
     24 N6        -17.6418    16.4750   -17.2847 N.ar       1  LIG1  -0.5900
     25 H2        -18.3238    15.8319   -17.5343 H          1  LIG1   0.4400
     26 C17       -17.9310    17.7886   -21.3832 C.ar       1  LIG1  -0.1100
     27 C18       -16.8463    18.5259   -21.8202 C.ar       1  LIG1  -0.1200
     28 H3        -16.2151    21.3633   -23.5701 H          1  LIG1   0.0700
     29 H4        -15.2782    20.8166   -22.1589 H          1  LIG1   0.0700
     30 H5        -15.2416    19.8765   -23.6699 H          1  LIG1   0.0700
     31 H6        -18.4855    21.0057   -23.4142 H          1  LIG1   0.1200
     32 H7        -20.4176    19.6892   -22.6414 H          1  LIG1   0.1200
     33 H8        -21.2222    17.5193   -21.9088 H          1  LIG1   0.0800
     34 H9        -20.1195    16.3485   -21.1461 H          1  LIG1   0.0900
     35 H10       -22.9275    17.8864   -20.3156 H          1  LIG1   0.0700
     36 H11       -22.3368    16.3719   -19.5905 H          1  LIG1   0.0500
     37 H12       -22.1367    17.5789   -17.5390 H          1  LIG1   0.3900
     38 H13       -20.4029    17.3398   -17.7863 H          1  LIG1   0.0900
     39 H14       -19.6942    16.2555   -19.0071 H          1  LIG1   0.1000
     40 H15       -18.5277    18.8107   -19.3018 H          1  LIG1   0.4300
     41 H16       -16.6760    19.6114   -17.8538 H          1  LIG1   0.1900
     42 H17       -13.5183    17.8778   -14.7751 H          1  LIG1   0.1900
     43 H18       -12.0500    20.0429   -14.5550 H          1  LIG1   0.1700
     44 H19       -13.1182    21.9238   -16.1149 H          1  LIG1   0.2100
     45 H20       -16.0089    14.5736   -15.2785 H          1  LIG1   0.4500
     46 H21       -17.3873    14.2143   -16.1695 H          1  LIG1   0.4300
     47 H22       -17.7751    16.8850   -20.8128 H          1  LIG1   0.1200
     48 H23       -15.8430    18.1995   -21.5889 H          1  LIG1   0.1200
@<TRIPOS>BOND
     1    1    2 1
     2    1   28 1
     3    1   29 1
     4    1   30 1
     5    2   27 ar
     6    2    3 ar
     7    3    4 ar
     8    3   31 1
     9    4    5 ar
    10    4   32 1
    11    5    6 1
    12    5   26 ar
    13    6    7 1
    14    6   33 1
    15    6   34 1
    16    7    8 1
    17    7    9 1
    18    7   11 1
    19    9   10 1
    20    9   35 1
    21    9   36 1
    22   10   37 1
    23   11   12 1
    24   11   38 1
    25   11   39 1
    26   12   13 1
    27   12   40 1
    28   13   24 ar
    29   13   14 ar
    30   14   15 ar
    31   14   41 1
    32   15   16 1
    33   15   21 ar
    34   16   20 1
    35   16   17 1
    36   17   18 2
    37   17   42 1
    38   18   19 1
    39   18   43 1
    40   19   20 2
    41   19   44 1
    42   21   22 ar
    43   22   23 1
    44   22   24 ar
    45   23   45 1
    46   23   46 1
    47   24   25 1
    48   26   27 ar
    49   26   47 1
    50   27   48 1
##########                 Name:     ZINC000459715279
##########          Protonation:                 none
##########               SMILES:   Cc1cccc(CNC(=O)C[N@H+]2CC3(CCC3)[C@H]3COC[C@@H]32)c1
##########            Long Name:   NO_LONG_NAME
##########          FlexRecCode: 1
##########               Number:                 4961
##########   Ligand Source File: /nfs/db/export/3D/DE/ADMO/DEADMO.xazj.db2.gz
##########                 Rank:                    1
##########               Setnum:                  309
##########             Matchnum:                    1
##########                Cloud:                    1
##########        Electrostatic:           -46.974461
##########                 Gist:             0.000000
##########        Van der Waals:           -30.595512
##########  Ligand Polar Desolv:            15.271069
########## Ligand Apolar Desolv:            -4.949128
##########      Internal Energy:             0.000000
##########      Receptor Energy:             0.000000
########## Receptor Desolvation:             0.000000
########## Receptor Hydrophobic:             0.000000
##########         Total Energy:           -67.248032
##########        Ligand Charge:             1.000000
##########            Arbitrary:    +999.9990
##########        Ligand Energy:             0.000000

@<TRIPOS>MOLECULE
 ZINC000459715279      none
   50    53     0     0     0



@<TRIPOS>ATOM
      1 C1        -13.0726    13.2029   -12.1480 C.3        1  LIG1  -0.1200
      2 C2        -13.9800    13.2569   -13.3501 C.ar       1  LIG1  -0.0800
      3 C3        -14.5685    12.0998   -13.8242 C.ar       1  LIG1  -0.1000
      4 C4        -15.4010    12.1494   -14.9270 C.ar       1  LIG1  -0.1100
      5 C5        -15.6449    13.3562   -15.5550 C.ar       1  LIG1  -0.1100
      6 C6        -15.0570    14.5139   -15.0801 C.ar       1  LIG1  -0.1200
      7 C7        -15.3226    15.8297   -15.7650 C.3        1  LIG1   0.1600
      8 N1        -16.7552    15.9538   -16.0454 N.am       1  LIG1  -0.7000
      9 C8        -17.3333    17.1710   -16.0740 C.2        1  LIG1   0.5000
     10 O1        -16.6675    18.1635   -15.8677 O.2        1  LIG1  -0.5300
     11 C9        -18.8069    17.2986   -16.3624 C.3        1  LIG1  -0.0300
     12 N2        -19.0967    16.7367   -17.6884 N.4        1  LIG1  -0.3600
     13 H1        -18.8402    15.7616   -17.7264 H          1  LIG1   0.4300
     14 C10       -20.5493    16.9195   -18.0385 C.3        1  LIG1   0.0300
     15 C11       -20.5871    17.1535   -19.5724 C.3        1  LIG1  -0.0900
     16 C12       -21.6850    16.3833   -20.3042 C.3        1  LIG1  -0.1200
     17 C13       -22.5758    17.6206   -20.0892 C.3        1  LIG1  -0.1400
     18 C14       -21.2800    18.4470   -19.9988 C.3        1  LIG1  -0.1300
     19 C15       -19.1711    16.9399   -20.0020 C.3        1  LIG1  -0.1200
     20 H2        -18.9759    15.8733   -20.1127 H          1  LIG1   0.1100
     21 C16       -18.4211    17.7065   -21.0539 C.3        1  LIG1   0.0600
     22 O2        -17.0578    17.8069   -20.5561 O.3        1  LIG1  -0.3500
     23 C17       -17.0069    17.2791   -19.1961 C.3        1  LIG1   0.0700
     24 C18       -18.4180    17.4836   -18.7189 C.3        1  LIG1  -0.0500
     25 H3        -18.6147    18.5471   -18.5831 H          1  LIG1   0.1600
     26 C19       -14.2282    14.4650   -13.9750 C.ar       1  LIG1  -0.1000
     27 H4        -12.9981    12.1743   -11.7950 H          1  LIG1   0.0700
     28 H5        -12.0822    13.5649   -12.4238 H          1  LIG1   0.0700
     29 H6        -13.4812    13.8302   -11.3558 H          1  LIG1   0.0700
     30 H7        -14.3779    11.1568   -13.3335 H          1  LIG1   0.1300
     31 H8        -15.8602    11.2450   -15.2980 H          1  LIG1   0.1300
     32 H9        -16.2947    13.3949   -16.4168 H          1  LIG1   0.1200
     33 H10       -15.0072    16.6470   -15.1165 H          1  LIG1   0.0900
     34 H11       -14.7643    15.8717   -16.7002 H          1  LIG1   0.0900
     35 H12       -17.2876    15.1600   -16.2105 H          1  LIG1   0.4100
     36 H13       -19.3736    16.7557   -15.6061 H          1  LIG1   0.1600
     37 H14       -19.0911    18.3508   -16.3437 H          1  LIG1   0.1600
     38 H15       -21.1141    16.0237   -17.7806 H          1  LIG1   0.1500
     39 H16       -20.9563    17.7851   -17.5158 H          1  LIG1   0.1400
     40 H17       -21.4567    16.1851   -21.3513 H          1  LIG1   0.1000
     41 H18       -22.0292    15.4981   -19.7693 H          1  LIG1   0.0800
     42 H19       -23.1924    17.8694   -20.9530 H          1  LIG1   0.0900
     43 H20       -23.1419    17.5939   -19.1581 H          1  LIG1   0.0900
     44 H21       -21.3008    19.2093   -19.2201 H          1  LIG1   0.0800
     45 H22       -20.9377    18.8304   -20.9600 H          1  LIG1   0.1000
     46 H23       -18.4390    17.1661   -22.0003 H          1  LIG1   0.1000
     47 H24       -18.8525    18.7000   -21.1772 H          1  LIG1   0.0900
     48 H25       -16.7397    16.2224   -19.2015 H          1  LIG1   0.0900
     49 H26       -16.3091    17.8519   -18.5851 H          1  LIG1   0.1200
     50 H27       -13.7689    15.3693   -13.6040 H          1  LIG1   0.1200
@<TRIPOS>BOND
     1    1    2 1
     2    1   27 1
     3    1   28 1
     4    1   29 1
     5    2   26 ar
     6    2    3 ar
     7    3    4 ar
     8    3   30 1
     9    4    5 ar
    10    4   31 1
    11    5    6 ar
    12    5   32 1
    13    6    7 1
    14    6   26 ar
    15    7    8 1
    16    7   33 1
    17    7   34 1
    18    8    9 am
    19    8   35 1
    20    9   10 2
    21    9   11 1
    22   11   12 1
    23   11   36 1
    24   11   37 1
    25   12   13 1
    26   12   24 1
    27   12   14 1
    28   14   15 1
    29   14   38 1
    30   14   39 1
    31   15   18 1
    32   15   16 1
    33   15   19 1
    34   16   17 1
    35   16   40 1
    36   16   41 1
    37   17   18 1
    38   17   42 1
    39   17   43 1
    40   18   44 1
    41   18   45 1
    42   19   20 1
    43   19   24 1
    44   19   21 1
    45   21   22 1
    46   21   46 1
    47   21   47 1
    48   22   23 1
    49   23   24 1
    50   23   48 1
    51   23   49 1
    52   24   25 1
    53   26   50 1
##########                 Name:     ZINC000284910391
##########          Protonation:                 none
##########               SMILES:   C[C@H](C1=NC=C(C2=CC=C(Cl)C=C2)O1)[N@H+]1CC[C@@](O)(C2=NNN=C2)C1
##########            Long Name:   NO_LONG_NAME
##########          FlexRecCode: 1
##########               Number:                  850
##########   Ligand Source File: /nfs/db/export/3D/FF/ADMO/FFADMO.xbon.db2.gz
##########                 Rank:                    1
##########               Setnum:                  164
##########             Matchnum:                    1
##########                Cloud:                    1
##########        Electrostatic:           -41.958744
##########                 Gist:             0.000000
##########        Van der Waals:           -39.852135
##########  Ligand Polar Desolv:            14.016890
########## Ligand Apolar Desolv:            -1.756958
##########      Internal Energy:             0.000000
##########      Receptor Energy:             0.000000
########## Receptor Desolvation:             0.000000
########## Receptor Hydrophobic:             0.000000
##########         Total Energy:           -69.550949
##########        Ligand Charge:             1.000000
##########            Arbitrary:    +999.9990
##########        Ligand Energy:             0.000000

@<TRIPOS>MOLECULE
 ZINC000284910391      none
   44    47     0     0     0



@<TRIPOS>ATOM
      1 C1        -16.4675    16.0823   -19.6774 C.3        1  LIG1  -0.1800
      2 C2        -17.0834    16.8044   -18.4773 C.3        1  LIG1   0.1500
      3 H1        -16.9606    17.8806   -18.5986 H          1  LIG1   0.1600
      4 C3        -16.3920    16.3593   -17.2144 C.2        1  LIG1   0.1200
      5 N1        -15.7461    17.1367   -16.3912 N.2        1  LIG1  -0.4400
      6 C4        -15.2643    16.3962   -15.3816 C.2        1  LIG1  -0.0200
      7 C5        -15.6367    15.1097   -15.6046 C.2        1  LIG1   0.0600
      8 C6        -15.3287    13.9428   -14.7511 C.ar       1  LIG1  -0.0400
      9 C7        -16.2072    12.8593   -14.7017 C.ar       1  LIG1  -0.0800
     10 C8        -15.9142    11.7731   -13.9036 C.ar       1  LIG1  -0.1100
     11 C9        -14.7511    11.7564   -13.1521 C.ar       1  LIG1  -0.0100
     12 Cl1       -14.3888    10.3859   -12.1499 Cl         1  LIG1  -0.0400
     13 C10       -13.8757    12.8282   -13.1970 C.ar       1  LIG1  -0.1000
     14 C11       -14.1552    13.9175   -13.9958 C.ar       1  LIG1  -0.0700
     15 O1        -16.3473    15.1017   -16.7538 O.3        1  LIG1  -0.1800
     16 N2        -18.5138    16.4811   -18.3925 N.4        1  LIG1  -0.3900
     17 H2        -18.6401    15.4864   -18.2799 H          1  LIG1   0.4400
     18 C12       -19.1341    17.2052   -17.2618 C.3        1  LIG1  -0.0100
     19 C13       -20.5604    17.5880   -17.6985 C.3        1  LIG1  -0.1600
     20 C14       -20.6927    17.0658   -19.1476 C.3        1  LIG1   0.2200
     21 O2        -21.3281    15.7858   -19.1677 O.3        1  LIG1  -0.5400
     22 C15       -21.4512    18.0488   -20.0016 C.2        1  LIG1  -0.0400
     23 N3        -20.9496    19.0397   -20.7034 N.2        1  LIG1  -0.2600
     24 N4        -21.9112    19.6527   -21.2978 N.pl3      1  LIG1  -0.2300
     25 N5        -23.0415    19.1067   -21.0186 N.2        1  LIG1  -0.2600
     26 C16       -22.8311    18.0897   -20.2140 C.2        1  LIG1   0.0000
     27 C17       -19.2185    16.9521   -19.6123 C.3        1  LIG1   0.0200
     28 H3        -16.5903    15.0060   -19.5561 H          1  LIG1   0.0900
     29 H4        -16.9675    16.4044   -20.5909 H          1  LIG1   0.1000
     30 H5        -15.4061    16.3220   -19.7403 H          1  LIG1   0.1100
     31 H6        -14.6857    16.7575   -14.5443 H          1  LIG1   0.2000
     32 H7        -17.1149    12.8718   -15.2868 H          1  LIG1   0.1400
     33 H8        -16.5932    10.9342   -13.8646 H          1  LIG1   0.1500
     34 H9        -12.9704    12.8095   -12.6085 H          1  LIG1   0.1500
     35 H10       -13.4714    14.7528   -14.0301 H          1  LIG1   0.1400
     36 H11       -19.1752    16.5592   -16.3848 H          1  LIG1   0.1400
     37 H12       -18.5607    18.1045   -17.0373 H          1  LIG1   0.1300
     38 H13       -21.2955    17.1062   -17.0540 H          1  LIG1   0.1200
     39 H14       -20.6860    18.6704   -17.6736 H          1  LIG1   0.1200
     40 H15       -20.8541    15.1037   -18.6728 H          1  LIG1   0.4100
     41 H16       -21.7992    20.4221   -21.8778 H          1  LIG1   0.4800
     42 H17       -23.5737    17.4256   -19.7969 H          1  LIG1   0.2100
     43 H18       -18.8373    17.9245   -19.9242 H          1  LIG1   0.1600
     44 H19       -19.1242    16.2243   -20.4183 H          1  LIG1   0.1600
@<TRIPOS>BOND
     1    1    2 1
     2    1   28 1
     3    1   29 1
     4    1   30 1
     5    2    3 1
     6    2    4 1
     7    2   16 1
     8    4   15 1
     9    4    5 2
    10    5    6 1
    11    6    7 2
    12    6   31 1
    13    7    8 1
    14    7   15 1
    15    8   14 ar
    16    8    9 ar
    17    9   10 ar
    18    9   32 1
    19   10   11 ar
    20   10   33 1
    21   11   12 1
    22   11   13 ar
    23   13   14 ar
    24   13   34 1
    25   14   35 1
    26   16   17 1
    27   16   27 1
    28   16   18 1
    29   18   19 1
    30   18   36 1
    31   18   37 1
    32   19   20 1
    33   19   38 1
    34   19   39 1
    35   20   21 1
    36   20   22 1
    37   20   27 1
    38   21   40 1
    39   22   26 1
    40   22   23 2
    41   23   24 1
    42   24   25 1
    43   24   41 1
    44   25   26 2
    45   26   42 1
    46   27   43 1
    47   27   44 1
##########                 Name:     ZINC000593577820
##########          Protonation:                 none
##########               SMILES:   COC(=O)C[C@H]1CSCC[N@H+]1CC1=CN(C2=CC=CC(C)=C2)N=C1C
##########            Long Name:   NO_LONG_NAME
##########          FlexRecCode: 1
##########               Number:                 9134
##########   Ligand Source File: /nfs/db/export/3D/FF/ADMO/FFADMO.xaee.db2.gz
##########                 Rank:                    1
##########               Setnum:                  163
##########             Matchnum:                    1
##########                Cloud:                    1
##########        Electrostatic:           -44.187214
##########                 Gist:             0.000000
##########        Van der Waals:           -35.029285
##########  Ligand Polar Desolv:            13.205524
########## Ligand Apolar Desolv:            -6.491438
##########      Internal Energy:             0.000000
##########      Receptor Energy:             0.000000
########## Receptor Desolvation:             0.000000
########## Receptor Hydrophobic:             0.000000
##########         Total Energy:           -72.502411
##########        Ligand Charge:             1.000000
##########            Arbitrary:    +999.9990
##########        Ligand Energy:             0.000000

@<TRIPOS>MOLECULE
 ZINC000593577820      none
   51    53     0     0     0



@<TRIPOS>ATOM
      1 C1        -23.6035    15.9810   -19.9074 C.3        1  LIG1   0.0300
      2 O1        -22.4694    15.9841   -19.0006 O.3        1  LIG1  -0.3400
      3 C2        -21.5098    16.8946   -19.2280 C.2        1  LIG1   0.4700
      4 O2        -21.6138    17.6636   -20.1542 O.2        1  LIG1  -0.5200
      5 C3        -20.3026    16.9579   -18.3282 C.3        1  LIG1  -0.1700
      6 C4        -19.0376    16.7152   -19.1539 C.3        1  LIG1   0.0500
      7 H1        -19.2278    15.9292   -19.8850 H          1  LIG1   0.1600
      8 C5        -18.6501    18.0061   -19.8834 C.3        1  LIG1  -0.1300
      9 S1        -17.1957    17.6657   -20.9220 S.3        1  LIG1  -0.1700
     10 C6        -16.0698    16.8672   -19.7368 C.3        1  LIG1  -0.1300
     11 C7        -16.8309    15.7410   -19.0286 C.3        1  LIG1  -0.0100
     12 N1        -17.9495    16.3005   -18.2661 N.4        1  LIG1  -0.3900
     13 H2        -18.2951    15.6023   -17.6251 H          1  LIG1   0.4300
     14 C8        -17.4783    17.4639   -17.5029 C.3        1  LIG1   0.0600
     15 C9        -16.3579    17.0436   -16.5870 C.2        1  LIG1  -0.3100
     16 C10       -16.3374    15.9352   -15.8109 C.2        1  LIG1   0.1000
     17 N2        -15.1607    15.9209   -15.1448 N.pl3      1  LIG1  -0.2900
     18 C11       -14.7395    14.9411   -14.2349 C.ar       1  LIG1   0.1300
     19 C12       -13.8936    15.2818   -13.1884 C.ar       1  LIG1  -0.1400
     20 C13       -13.4802    14.3141   -12.2933 C.ar       1  LIG1  -0.0900
     21 C14       -13.9082    13.0076   -12.4391 C.ar       1  LIG1  -0.1100
     22 C15       -14.7511    12.6652   -13.4809 C.ar       1  LIG1  -0.0600
     23 C16       -15.2153    11.2400   -13.6362 C.3        1  LIG1  -0.1200
     24 C17       -15.1723    13.6292   -14.3754 C.ar       1  LIG1  -0.1100
     25 N3        -14.4368    17.0581   -15.5256 N.2        1  LIG1  -0.2500
     26 C18       -15.1525    17.7272   -16.3934 C.2        1  LIG1   0.0800
     27 C19       -14.7510    19.0164   -17.0624 C.3        1  LIG1  -0.1000
     28 H3        -24.3029    15.1991   -19.6118 H          1  LIG1   0.0700
     29 H4        -24.1028    16.9491   -19.8680 H          1  LIG1   0.0700
     30 H5        -23.2558    15.7927   -20.9232 H          1  LIG1   0.1100
     31 H6        -20.2485    17.9413   -17.8614 H          1  LIG1   0.1500
     32 H7        -20.3846    16.1932   -17.5559 H          1  LIG1   0.1500
     33 H8        -19.4788    18.3356   -20.5101 H          1  LIG1   0.1600
     34 H9        -18.4073    18.7798   -19.1550 H          1  LIG1   0.1100
     35 H10       -15.2128    16.4525   -20.2677 H          1  LIG1   0.1600
     36 H11       -15.7313    17.5986   -19.0030 H          1  LIG1   0.1100
     37 H12       -17.2120    15.0392   -19.7704 H          1  LIG1   0.1500
     38 H13       -16.1559    15.2183   -18.3508 H          1  LIG1   0.1500
     39 H14       -17.1173    18.2281   -18.1915 H          1  LIG1   0.1500
     40 H15       -18.2998    17.8671   -16.9109 H          1  LIG1   0.1400
     41 H16       -17.1206    15.1952   -15.7365 H          1  LIG1   0.1900
     42 H17       -13.5586    16.3021   -13.0741 H          1  LIG1   0.1300
     43 H18       -12.8217    14.5784   -11.4791 H          1  LIG1   0.1400
     44 H19       -13.5834    12.2527   -11.7384 H          1  LIG1   0.1400
     45 H20       -15.8676    11.1630   -14.5061 H          1  LIG1   0.0800
     46 H21       -14.3514    10.5891   -13.7712 H          1  LIG1   0.0700
     47 H22       -15.7627    10.9368   -12.7437 H          1  LIG1   0.0800
     48 H23       -15.8308    13.3614   -15.1884 H          1  LIG1   0.1400
     49 H24       -13.7597    19.3111   -16.7182 H          1  LIG1   0.0800
     50 H25       -14.7331    18.8748   -18.1431 H          1  LIG1   0.0800
     51 H26       -15.4699    19.7960   -16.8100 H          1  LIG1   0.1000
@<TRIPOS>BOND
     1    1    2 1
     2    1   28 1
     3    1   29 1
     4    1   30 1
     5    2    3 1
     6    3    4 2
     7    3    5 1
     8    5    6 1
     9    5   31 1
    10    5   32 1
    11    6    7 1
    12    6   12 1
    13    6    8 1
    14    8    9 1
    15    8   33 1
    16    8   34 1
    17    9   10 1
    18   10   11 1
    19   10   35 1
    20   10   36 1
    21   11   12 1
    22   11   37 1
    23   11   38 1
    24   12   13 1
    25   12   14 1
    26   14   15 1
    27   14   39 1
    28   14   40 1
    29   15   26 1
    30   15   16 2
    31   16   17 1
    32   16   41 1
    33   17   18 1
    34   17   25 1
    35   18   24 ar
    36   18   19 ar
    37   19   20 ar
    38   19   42 1
    39   20   21 ar
    40   20   43 1
    41   21   22 ar
    42   21   44 1
    43   22   23 1
    44   22   24 ar
    45   23   45 1
    46   23   46 1
    47   23   47 1
    48   24   48 1
    49   25   26 2
    50   26   27 1
    51   27   49 1
    52   27   50 1
    53   27   51 1
##########                 Name:     ZINC000591068587
##########          Protonation:                 none
##########               SMILES:   CC[N@H+]1C[C@H](C)[C@H](NC(=O)[C@@H]2C[C@H]2C2=CC=C([N+](=O)[O-])C=C2)C1
##########            Long Name:   NO_LONG_NAME
##########          FlexRecCode: 1
##########               Number:                 6253
##########   Ligand Source File: /nfs/db/export/3D/DE/BDMO/DEBDMO.xau.db2.gz
##########                 Rank:                    1
##########               Setnum:                   48
##########             Matchnum:                    1
##########                Cloud:                    1
##########        Electrostatic:           -45.640686
##########                 Gist:             0.000000
##########        Van der Waals:           -35.051712
##########  Ligand Polar Desolv:            21.082657
########## Ligand Apolar Desolv:            -6.195101
##########      Internal Energy:             0.000000
##########      Receptor Energy:             0.000000
########## Receptor Desolvation:             0.000000
########## Receptor Hydrophobic:             0.000000
##########         Total Energy:           -65.804840
##########        Ligand Charge:             1.000000
##########            Arbitrary:    +999.9990
##########        Ligand Energy:             0.000000

@<TRIPOS>MOLECULE
 ZINC000591068587      none
   47    49     0     0     0



@<TRIPOS>ATOM
      1 C1        -22.6591    15.4942   -17.9303 C.3        1  LIG1  -0.1900
      2 C2        -21.8660    15.8441   -19.1911 C.3        1  LIG1  -0.0100
      3 N1        -20.4601    16.0789   -18.8357 N.4        1  LIG1  -0.4000
      4 H1        -20.0641    15.2516   -18.4154 H          1  LIG1   0.4200
      5 C3        -19.6871    16.4602   -20.0376 C.3        1  LIG1  -0.0100
      6 C4        -18.6360    17.4927   -19.5899 C.3        1  LIG1  -0.1100
      7 H2        -18.7776    18.4326   -20.1232 H          1  LIG1   0.1300
      8 C5        -17.2248    16.9532   -19.8322 C.3        1  LIG1  -0.1600
      9 C6        -18.8842    17.6916   -18.0769 C.3        1  LIG1   0.1300
     10 H3        -18.7744    18.7408   -17.8027 H          1  LIG1   0.1400
     11 N2        -17.9771    16.8541   -17.2883 N.am       1  LIG1  -0.7300
     12 C7        -17.1620    17.4180   -16.3751 C.2        1  LIG1   0.5500
     13 O1        -17.1793    18.6190   -16.2062 O.2        1  LIG1  -0.5100
     14 C8        -16.2287    16.5565   -15.5640 C.3        1  LIG1  -0.1800
     15 H4        -16.3723    16.5952   -14.4843 H          1  LIG1   0.1300
     16 C9        -14.7991    16.3830   -16.0808 C.3        1  LIG1  -0.1400
     17 C10       -15.7924    15.2217   -16.1714 C.3        1  LIG1  -0.0800
     18 H5        -16.1800    14.9668   -17.1576 H          1  LIG1   0.1400
     19 C11       -15.5932    14.0608   -15.2312 C.ar       1  LIG1  -0.0100
     20 C12       -14.6594    14.1463   -14.2156 C.ar       1  LIG1  -0.1200
     21 C13       -14.4768    13.0814   -13.3532 C.ar       1  LIG1  -0.0500
     22 C14       -15.2281    11.9313   -13.5063 C.ar       1  LIG1  -0.0400
     23 N3        -15.0322    10.7909   -12.5832 N.pl3      1  LIG1   0.0200
     24 O2        -14.2089    10.8660   -11.6887 O.2        1  LIG1  -0.1500
     25 O3        -15.6941     9.7775   -12.7182 O.2        1  LIG1  -0.1500
     26 C15       -16.1628    11.8463   -14.5212 C.ar       1  LIG1  -0.0500
     27 C16       -16.3482    12.9127   -15.3812 C.ar       1  LIG1  -0.1000
     28 C17       -20.3532    17.2291   -17.9020 C.3        1  LIG1  -0.0200
     29 H6        -23.7023    15.3199   -18.1940 H          1  LIG1   0.1100
     30 H7        -22.2434    14.5940   -17.4778 H          1  LIG1   0.0800
     31 H8        -22.5966    16.3195   -17.2211 H          1  LIG1   0.0800
     32 H9        -21.9284    15.0187   -19.9004 H          1  LIG1   0.1300
     33 H10       -22.2817    16.7444   -19.6437 H          1  LIG1   0.1300
     34 H11       -19.1921    15.5832   -20.4544 H          1  LIG1   0.1400
     35 H12       -20.3502    16.9037   -20.7803 H          1  LIG1   0.1400
     36 H13       -16.4926    17.6940   -19.5108 H          1  LIG1   0.0800
     37 H14       -17.0847    16.0337   -19.2640 H          1  LIG1   0.0800
     38 H15       -17.0918    16.7480   -20.8943 H          1  LIG1   0.0600
     39 H16       -17.9633    15.8936   -17.4233 H          1  LIG1   0.4100
     40 H17       -14.5336    16.8918   -17.0074 H          1  LIG1   0.1100
     41 H18       -14.0022    16.3071   -15.3409 H          1  LIG1   0.1200
     42 H19       -14.0725    15.0449   -14.0959 H          1  LIG1   0.1500
     43 H20       -13.7467    13.1480   -12.5600 H          1  LIG1   0.1600
     44 H21       -16.7501    10.9479   -14.6407 H          1  LIG1   0.1600
     45 H22       -17.0785    12.8463   -16.1741 H          1  LIG1   0.1500
     46 H23       -21.0430    18.0224   -18.1898 H          1  LIG1   0.1500
     47 H24       -20.5369    16.9117   -16.8754 H          1  LIG1   0.1400
@<TRIPOS>BOND
     1    1    2 1
     2    1   29 1
     3    1   30 1
     4    1   31 1
     5    2    3 1
     6    2   32 1
     7    2   33 1
     8    3    4 1
     9    3   28 1
    10    3    5 1
    11    5    6 1
    12    5   34 1
    13    5   35 1
    14    6    7 1
    15    6    8 1
    16    6    9 1
    17    8   36 1
    18    8   37 1
    19    8   38 1
    20    9   10 1
    21    9   11 1
    22    9   28 1
    23   11   12 am
    24   11   39 1
    25   12   13 2
    26   12   14 1
    27   14   15 1
    28   14   17 1
    29   14   16 1
    30   16   17 1
    31   16   40 1
    32   16   41 1
    33   17   18 1
    34   17   19 1
    35   19   27 ar
    36   19   20 ar
    37   20   21 ar
    38   20   42 1
    39   21   22 ar
    40   21   43 1
    41   22   23 1
    42   22   26 ar
    43   23   24 2
    44   23   25 2
    45   26   27 ar
    46   26   44 1
    47   27   45 1
    48   28   46 1
    49   28   47 1
##########                 Name:     ZINC000639585864
##########          Protonation:                 none
##########               SMILES:   C[N@@H+](CC1=NN=C(C2=C3C=CC=CC3=CC=C2)O1)CC1(O)CCC1
##########            Long Name:   NO_LONG_NAME
##########          FlexRecCode: 1
##########               Number:                11843
##########   Ligand Source File: /nfs/db/export/3D/DG/ADMO/DGADMO.xaqk.db2.gz
##########                 Rank:                    1
##########               Setnum:                  181
##########             Matchnum:                    1
##########                Cloud:                    1
##########        Electrostatic:           -42.976017
##########                 Gist:             0.000000
##########        Van der Waals:           -33.542709
##########  Ligand Polar Desolv:            14.146894
########## Ligand Apolar Desolv:            -3.402241
##########      Internal Energy:             0.000000
##########      Receptor Energy:             0.000000
########## Receptor Desolvation:             0.000000
########## Receptor Hydrophobic:             0.000000
##########         Total Energy:           -65.774071
##########        Ligand Charge:             1.000000
##########            Arbitrary:    +999.9990
##########        Ligand Energy:             0.000000

@<TRIPOS>MOLECULE
 ZINC000639585864      none
   46    49     0     0     0



@<TRIPOS>ATOM
      1 C1        -17.1187    15.6936   -19.1789 C.3        1  LIG1  -0.0600
      2 N1        -18.1646    16.4061   -18.4330 N.4        1  LIG1  -0.3800
      3 H1        -18.4852    15.8296   -17.6695 H          1  LIG1   0.4400
      4 C2        -17.6181    17.6622   -17.9023 C.3        1  LIG1   0.1000
      5 C3        -16.4634    17.3587   -16.9827 C.2        1  LIG1   0.0700
      6 N2        -15.3142    17.9747   -16.9610 N.2        1  LIG1  -0.2200
      7 N3        -14.5653    17.4568   -16.0520 N.2        1  LIG1  -0.2600
      8 C4        -15.2170    16.4835   -15.4572 C.2        1  LIG1   0.2800
      9 C5        -14.7136    15.6357   -14.3599 C.ar       1  LIG1  -0.0600
     10 C6        -15.1625    14.2986   -14.2237 C.ar       1  LIG1  -0.0100
     11 C7        -16.0889    13.7475   -15.1197 C.ar       1  LIG1  -0.1200
     12 C8        -16.4984    12.4581   -14.9588 C.ar       1  LIG1  -0.0900
     13 C9        -16.0092    11.6762   -13.9147 C.ar       1  LIG1  -0.1100
     14 C10       -15.1087    12.1788   -13.0262 C.ar       1  LIG1  -0.0900
     15 C11       -14.6640    13.5056   -13.1616 C.ar       1  LIG1  -0.0600
     16 C12       -13.7345    14.0565   -12.2628 C.ar       1  LIG1  -0.0500
     17 C13       -13.3178    15.3451   -12.4146 C.ar       1  LIG1  -0.1300
     18 C14       -13.7914    16.1365   -13.4536 C.ar       1  LIG1  -0.0400
     19 O1        -16.4341    16.4079   -16.0328 O.3        1  LIG1  -0.2100
     20 C15       -19.2901    16.7020   -19.3294 C.3        1  LIG1   0.0200
     21 C16       -20.5457    16.9746   -18.4986 C.3        1  LIG1   0.0800
     22 O2        -20.5449    16.2826   -17.2484 O.3        1  LIG1  -0.5500
     23 C17       -20.8924    18.4679   -18.3781 C.3        1  LIG1  -0.1900
     24 C18       -22.3655    18.0586   -18.5432 C.3        1  LIG1  -0.1400
     25 C19       -21.8546    16.8152   -19.2900 C.3        1  LIG1  -0.1600
     26 H2        -16.7724    16.3164   -20.0037 H          1  LIG1   0.1300
     27 H3        -16.2835    15.4741   -18.5138 H          1  LIG1   0.1200
     28 H4        -17.5242    14.7615   -19.5727 H          1  LIG1   0.1300
     29 H5        -17.2717    18.2849   -18.7270 H          1  LIG1   0.1700
     30 H6        -18.3941    18.1909   -17.3488 H          1  LIG1   0.1600
     31 H7        -16.4766    14.3423   -15.9335 H          1  LIG1   0.1300
     32 H8        -17.2125    12.0361   -15.6504 H          1  LIG1   0.1300
     33 H9        -16.3497    10.6569   -13.8083 H          1  LIG1   0.1300
     34 H10       -14.7380    11.5617   -12.2211 H          1  LIG1   0.1400
     35 H11       -13.3502    13.4578   -11.4503 H          1  LIG1   0.1400
     36 H12       -12.6033    15.7570   -11.7173 H          1  LIG1   0.1400
     37 H13       -13.4448    17.1547   -13.5510 H          1  LIG1   0.1300
     38 H14       -19.0546    17.5801   -19.9306 H          1  LIG1   0.1500
     39 H15       -19.4663    15.8492   -19.9850 H          1  LIG1   0.1500
     40 H16       -20.4989    15.3204   -17.3314 H          1  LIG1   0.4100
     41 H17       -20.6639    18.8917   -17.4002 H          1  LIG1   0.0900
     42 H18       -20.5122    19.0723   -19.2018 H          1  LIG1   0.1100
     43 H19       -22.8629    17.8284   -17.6011 H          1  LIG1   0.0900
     44 H20       -22.9401    18.7396   -19.1711 H          1  LIG1   0.0900
     45 H21       -21.7374    16.9678   -20.3630 H          1  LIG1   0.1000
     46 H22       -22.4029    15.9047   -19.0483 H          1  LIG1   0.0900
@<TRIPOS>BOND
     1    1    2 1
     2    1   26 1
     3    1   27 1
     4    1   28 1
     5    2    3 1
     6    2    4 1
     7    2   20 1
     8    4    5 1
     9    4   29 1
    10    4   30 1
    11    5   19 1
    12    5    6 2
    13    6    7 1
    14    7    8 2
    15    8    9 1
    16    8   19 1
    17    9   18 ar
    18    9   10 ar
    19   10   15 ar
    20   10   11 ar
    21   11   12 ar
    22   11   31 1
    23   12   13 ar
    24   12   32 1
    25   13   14 ar
    26   13   33 1
    27   14   15 ar
    28   14   34 1
    29   15   16 ar
    30   16   17 ar
    31   16   35 1
    32   17   18 ar
    33   17   36 1
    34   18   37 1
    35   20   21 1
    36   20   38 1
    37   20   39 1
    38   21   25 1
    39   21   22 1
    40   21   23 1
    41   22   40 1
    42   23   24 1
    43   23   41 1
    44   23   42 1
    45   24   25 1
    46   24   43 1
    47   24   44 1
    48   25   45 1
    49   25   46 1
##########                 Name:     ZINC000564471621
##########          Protonation:                 none
##########               SMILES:   C[NH2+][C@@H](C)C(=O)NCC1=CC=CC(C2=CC=C(C)C=C2)=C1
##########            Long Name:   NO_LONG_NAME
##########          FlexRecCode: 1
##########               Number:                11519
##########   Ligand Source File: /nfs/db/export/3D/CF/ADRO/CFADRO.xasz.db2.gz
##########                 Rank:                    1
##########               Setnum:                  141
##########             Matchnum:                    1
##########                Cloud:                    1
##########        Electrostatic:           -53.853237
##########                 Gist:             0.000000
##########        Van der Waals:           -27.106289
##########  Ligand Polar Desolv:            22.109100
########## Ligand Apolar Desolv:            -5.058738
##########      Internal Energy:             0.000000
##########      Receptor Energy:             0.000000
########## Receptor Desolvation:             0.000000
########## Receptor Hydrophobic:             0.000000
##########         Total Energy:           -63.909164
##########        Ligand Charge:             1.000000
##########            Arbitrary:    +999.9990
##########        Ligand Energy:             0.000000

@<TRIPOS>MOLECULE
 ZINC000564471621      none
   44    45     0     0     0



@<TRIPOS>ATOM
      1 C1        -16.2894    14.7737   -19.1677 C.3        1  LIG1  -0.0500
      2 N1        -17.7446    14.9070   -19.3177 N.4        1  LIG1  -0.4900
      3 H1        -18.0816    14.2083   -19.9629 H          1  LIG1   0.4400
      4 H2        -18.1883    14.7784   -18.4207 H          1  LIG1   0.4400
      5 C2        -18.0631    16.2449   -19.8342 C.3        1  LIG1   0.0000
      6 H3        -17.5837    16.3838   -20.8032 H          1  LIG1   0.1700
      7 C3        -19.5787    16.3839   -19.9903 C.3        1  LIG1  -0.1800
      8 C4        -17.5595    17.2883   -18.8705 C.2        1  LIG1   0.5000
      9 O1        -16.7429    18.1073   -19.2356 O.2        1  LIG1  -0.5300
     10 N2        -18.0168    17.3114   -17.6028 N.am       1  LIG1  -0.7000
     11 C5        -17.5273    18.3258   -16.6659 C.3        1  LIG1   0.1600
     12 C6        -16.3091    17.8022   -15.9498 C.ar       1  LIG1  -0.1200
     13 C7        -15.1996    18.6129   -15.7918 C.ar       1  LIG1  -0.1000
     14 C8        -14.0780    18.1385   -15.1356 C.ar       1  LIG1  -0.1100
     15 C9        -14.0604    16.8528   -14.6348 C.ar       1  LIG1  -0.1000
     16 C10       -15.1757    16.0318   -14.7908 C.ar       1  LIG1  -0.0300
     17 C11       -15.1628    14.6483   -14.2543 C.ar       1  LIG1  -0.0600
     18 C12       -15.9019    13.6479   -14.8822 C.ar       1  LIG1  -0.1000
     19 C13       -15.8862    12.3628   -14.3790 C.ar       1  LIG1  -0.1200
     20 C14       -15.1386    12.0672   -13.2534 C.ar       1  LIG1  -0.0700
     21 C15       -15.1251    10.6622   -12.7089 C.3        1  LIG1  -0.1200
     22 C16       -14.4030    13.0564   -12.6260 C.ar       1  LIG1  -0.1200
     23 C17       -14.4068    14.3436   -13.1241 C.ar       1  LIG1  -0.1000
     24 C18       -16.3046    16.5163   -15.4479 C.ar       1  LIG1  -0.0900
     25 H4        -15.9252    15.5284   -18.4707 H          1  LIG1   0.1300
     26 H5        -16.0530    13.7810   -18.7845 H          1  LIG1   0.1300
     27 H6        -15.8099    14.9127   -20.1368 H          1  LIG1   0.1300
     28 H7        -19.8150    17.3765   -20.3735 H          1  LIG1   0.1100
     29 H8        -19.9429    15.6291   -20.6873 H          1  LIG1   0.1000
     30 H9        -20.0580    16.2449   -19.0213 H          1  LIG1   0.0900
     31 H10       -18.6699    16.6564   -17.3108 H          1  LIG1   0.4100
     32 H11       -17.2656    19.2307   -17.2142 H          1  LIG1   0.0900
     33 H12       -18.3062    18.5543   -15.9384 H          1  LIG1   0.0900
     34 H13       -15.2087    19.6197   -16.1822 H          1  LIG1   0.1300
     35 H14       -13.2142    18.7757   -15.0153 H          1  LIG1   0.1300
     36 H15       -13.1839    16.4833   -14.1233 H          1  LIG1   0.1300
     37 H16       -16.4862    13.8777   -15.7609 H          1  LIG1   0.1200
     38 H17       -16.4591    11.5868   -14.8647 H          1  LIG1   0.1300
     39 H18       -14.4866    10.6205   -11.8265 H          1  LIG1   0.0800
     40 H19       -16.1390    10.3677   -12.4377 H          1  LIG1   0.0700
     41 H20       -14.7400     9.9818   -13.4684 H          1  LIG1   0.0700
     42 H21       -13.8212    12.8202   -11.7474 H          1  LIG1   0.1300
     43 H22       -13.8321    15.1152   -12.6336 H          1  LIG1   0.1300
     44 H23       -17.1715    15.8843   -15.5714 H          1  LIG1   0.1300
@<TRIPOS>BOND
     1    1    2 1
     2    1   25 1
     3    1   26 1
     4    1   27 1
     5    2    3 1
     6    2    4 1
     7    2    5 1
     8    5    6 1
     9    5    7 1
    10    5    8 1
    11    7   28 1
    12    7   29 1
    13    7   30 1
    14    8    9 2
    15    8   10 am
    16   10   11 1
    17   10   31 1
    18   11   12 1
    19   11   32 1
    20   11   33 1
    21   12   24 ar
    22   12   13 ar
    23   13   14 ar
    24   13   34 1
    25   14   15 ar
    26   14   35 1
    27   15   16 ar
    28   15   36 1
    29   16   17 1
    30   16   24 ar
    31   17   23 ar
    32   17   18 ar
    33   18   19 ar
    34   18   37 1
    35   19   20 ar
    36   19   38 1
    37   20   21 1
    38   20   22 ar
    39   21   39 1
    40   21   40 1
    41   21   41 1
    42   22   23 ar
    43   22   42 1
    44   23   43 1
    45   24   44 1
##########                 Name:     ZINC000271618372
##########          Protonation:                 none
##########               SMILES:   CC[C@@H]1CC[C@H](C)[N@@H+]1CC(=O)NC1=CC(N2N=NN=C2C)=CC=C1F
##########            Long Name:   NO_LONG_NAME
##########          FlexRecCode: 1
##########               Number:                13761
##########   Ligand Source File: /nfs/db/export/3D/EE/ADRO/EEADRO.xbjo.db2.gz
##########                 Rank:                    1
##########               Setnum:                   57
##########             Matchnum:                    1
##########                Cloud:                    1
##########        Electrostatic:           -47.602600
##########                 Gist:             0.000000
##########        Van der Waals:           -30.406672
##########  Ligand Polar Desolv:            18.232029
########## Ligand Apolar Desolv:            -4.010069
##########      Internal Energy:             0.000000
##########      Receptor Energy:             0.000000
########## Receptor Desolvation:             0.000000
########## Receptor Hydrophobic:             0.000000
##########         Total Energy:           -63.787308
##########        Ligand Charge:             1.000000
##########            Arbitrary:    +999.9990
##########        Ligand Energy:             0.000000

@<TRIPOS>MOLECULE
 ZINC000271618372      none
   49    51     0     0     0



@<TRIPOS>ATOM
      1 C1        -17.7110    18.1244   -21.3418 C.3        1  LIG1  -0.1600
      2 C2        -17.1583    17.3682   -20.1321 C.3        1  LIG1  -0.1500
      3 C3        -18.3090    16.9905   -19.1973 C.3        1  LIG1   0.0200
      4 H1        -19.0210    16.3552   -19.7239 H          1  LIG1   0.1500
      5 C4        -19.0163    18.2662   -18.6934 C.3        1  LIG1  -0.1300
      6 C5        -19.3448    17.9235   -17.2165 C.3        1  LIG1  -0.1400
      7 C6        -18.1118    17.0787   -16.8096 C.3        1  LIG1   0.0200
      8 H2        -18.3609    16.4196   -15.9778 H          1  LIG1   0.1500
      9 C7        -16.9422    17.9904   -16.4333 C.3        1  LIG1  -0.1800
     10 N1        -17.7835    16.2825   -18.0156 N.4        1  LIG1  -0.3700
     11 H3        -18.2080    15.3699   -17.9459 H          1  LIG1   0.4300
     12 C8        -16.3259    16.1434   -18.1343 C.3        1  LIG1  -0.0400
     13 C9        -15.7904    15.4196   -16.9257 C.2        1  LIG1   0.5100
     14 O1        -14.6679    15.6506   -16.5285 O.2        1  LIG1  -0.5000
     15 N2        -16.5587    14.5155   -16.2864 N.am       1  LIG1  -0.6400
     16 C10       -16.0612    13.8429   -15.1634 C.ar       1  LIG1   0.1100
     17 C11       -15.1362    14.4623   -14.3364 C.ar       1  LIG1  -0.0700
     18 C12       -14.6456    13.7932   -13.2243 C.ar       1  LIG1   0.1400
     19 N3        -13.7100    14.4177   -12.3857 N.pl3      1  LIG1  -0.3400
     20 N4        -13.8459    14.6986   -11.0149 N.2        1  LIG1  -0.0800
     21 N5        -12.7533    15.2754   -10.6456 N.2        1  LIG1  -0.0200
     22 N6        -11.9505    15.3838   -11.6421 N.2        1  LIG1  -0.3200
     23 C13       -12.4834    14.8726   -12.7211 C.2        1  LIG1   0.2600
     24 C14       -11.8501    14.8109   -14.0872 C.3        1  LIG1  -0.0900
     25 C15       -15.0811    12.5058   -12.9414 C.ar       1  LIG1  -0.0800
     26 C16       -16.0031    11.8892   -13.7660 C.ar       1  LIG1  -0.1100
     27 C17       -16.4984    12.5546   -14.8725 C.ar       1  LIG1   0.1000
     28 F1        -17.3999    11.9498   -15.6768 F          1  LIG1  -0.1200
     29 H4        -16.8912    18.3935   -22.0078 H          1  LIG1   0.0700
     30 H5        -18.4187    17.4896   -21.8749 H          1  LIG1   0.0800
     31 H6        -18.2170    19.0291   -21.0047 H          1  LIG1   0.0700
     32 H7        -16.6522    16.4636   -20.4695 H          1  LIG1   0.0900
     33 H8        -16.4505    18.0032   -19.5992 H          1  LIG1   0.0900
     34 H9        -18.3479    19.1254   -18.7502 H          1  LIG1   0.1000
     35 H10       -19.9299    18.4492   -19.2590 H          1  LIG1   0.1200
     36 H11       -19.4153    18.8277   -16.6122 H          1  LIG1   0.1200
     37 H12       -20.2606    17.3365   -17.1463 H          1  LIG1   0.1000
     38 H13       -16.0836    17.3816   -16.1499 H          1  LIG1   0.1100
     39 H14       -16.6789    18.6148   -17.2871 H          1  LIG1   0.0700
     40 H15       -17.2307    18.6244   -15.5949 H          1  LIG1   0.0800
     41 H16       -16.0872    15.5752   -19.0332 H          1  LIG1   0.1700
     42 H17       -15.8705    17.1316   -18.1974 H          1  LIG1   0.1700
     43 H18       -17.4565    14.3307   -16.6041 H          1  LIG1   0.4300
     44 H19       -14.7978    15.4638   -14.5579 H          1  LIG1   0.1600
     45 H20       -10.8563    15.2568   -14.0474 H          1  LIG1   0.1100
     46 H21       -11.7693    13.7708   -14.4035 H          1  LIG1   0.0900
     47 H22       -12.4667    15.3601   -14.7987 H          1  LIG1   0.1100
     48 H23       -14.6987    11.9852   -12.0758 H          1  LIG1   0.1500
     49 H24       -16.3400    10.8874   -13.5438 H          1  LIG1   0.1700
@<TRIPOS>BOND
     1    1    2 1
     2    1   29 1
     3    1   30 1
     4    1   31 1
     5    2    3 1
     6    2   32 1
     7    2   33 1
     8    3    4 1
     9    3   10 1
    10    3    5 1
    11    5    6 1
    12    5   34 1
    13    5   35 1
    14    6    7 1
    15    6   36 1
    16    6   37 1
    17    7    8 1
    18    7    9 1
    19    7   10 1
    20    9   38 1
    21    9   39 1
    22    9   40 1
    23   10   11 1
    24   10   12 1
    25   12   13 1
    26   12   41 1
    27   12   42 1
    28   13   14 2
    29   13   15 am
    30   15   16 1
    31   15   43 1
    32   16   27 ar
    33   16   17 ar
    34   17   18 ar
    35   17   44 1
    36   18   19 1
    37   18   25 ar
    38   19   23 1
    39   19   20 1
    40   20   21 2
    41   21   22 1
    42   22   23 2
    43   23   24 1
    44   24   45 1
    45   24   46 1
    46   24   47 1
    47   25   26 ar
    48   25   48 1
    49   26   27 ar
    50   26   49 1
    51   27   28 1
##########                 Name:     ZINC000619015225
##########          Protonation:                 none
##########               SMILES:   CC1=CC=CN2C(NC(=O)[C@@H](C3CC3)[NH+]3CCCC3)=CN=C12
##########            Long Name:   NO_LONG_NAME
##########          FlexRecCode: 1
##########               Number:                 9810
##########   Ligand Source File: /nfs/db/export/3D/CE/ADRO/CEADRO.xaig.db2.gz
##########                 Rank:                    1
##########               Setnum:                    7
##########             Matchnum:                    1
##########                Cloud:                    1
##########        Electrostatic:           -48.690315
##########                 Gist:             0.000000
##########        Van der Waals:           -30.509521
##########  Ligand Polar Desolv:            15.799686
########## Ligand Apolar Desolv:            -6.197735
##########      Internal Energy:             0.000000
##########      Receptor Energy:             0.000000
########## Receptor Desolvation:             0.000000
########## Receptor Hydrophobic:             0.000000
##########         Total Energy:           -69.597885
##########        Ligand Charge:             1.000000
##########            Arbitrary:    +999.9990
##########        Ligand Energy:             0.000000

@<TRIPOS>MOLECULE
 ZINC000619015225      none
   45    48     0     0     0



@<TRIPOS>ATOM
      1 C1        -12.7261    13.6762   -12.5411 C.3        1  LIG1  -0.1100
      2 C2        -13.9360    13.4769   -13.4172 C.2        1  LIG1  -0.0300
      3 C3        -14.5062    12.2477   -13.5312 C.2        1  LIG1  -0.1100
      4 C4        -15.6349    12.0752   -14.3512 C.2        1  LIG1  -0.1100
      5 C5        -16.1537    13.1219   -15.0251 C.2        1  LIG1   0.0200
      6 N1        -15.5914    14.3638   -14.9211 N.pl3      1  LIG1  -0.3700
      7 C6        -15.9051    15.5733   -15.4810 C.2        1  LIG1   0.1300
      8 N2        -16.9626    15.8337   -16.3608 N.am       1  LIG1  -0.6100
      9 C7        -17.1526    17.0806   -16.8357 C.2        1  LIG1   0.5100
     10 O1        -16.8315    18.0402   -16.1664 O.2        1  LIG1  -0.5000
     11 C8        -17.7638    17.2830   -18.1982 C.3        1  LIG1   0.0600
     12 H1        -17.8377    18.3500   -18.4084 H          1  LIG1   0.1600
     13 C9        -16.8836    16.6147   -19.2564 C.3        1  LIG1  -0.2100
     14 C10       -16.4655    17.4579   -20.4626 C.3        1  LIG1  -0.1500
     15 C11       -15.4393    17.1027   -19.3847 C.3        1  LIG1  -0.1500
     16 N3        -19.1048    16.6841   -18.2272 N.4        1  LIG1  -0.3800
     17 H2        -19.1051    15.8065   -17.7294 H          1  LIG1   0.4400
     18 C12       -20.0943    17.6145   -17.6259 C.3        1  LIG1  -0.0100
     19 C13       -21.4411    17.1331   -18.2219 C.3        1  LIG1  -0.1400
     20 C14       -21.0589    16.7401   -19.6672 C.3        1  LIG1  -0.1400
     21 C15       -19.5410    16.4777   -19.6253 C.3        1  LIG1   0.0000
     22 C16       -14.9978    16.4723   -15.0218 C.2        1  LIG1   0.0500
     23 N4        -14.1496    15.8412   -14.2042 N.2        1  LIG1  -0.4700
     24 C17       -14.4912    14.5642   -14.1220 C.2        1  LIG1   0.2400
     25 H3        -12.4480    12.7266   -12.0840 H          1  LIG1   0.0800
     26 H4        -11.8972    14.0454   -13.1450 H          1  LIG1   0.0800
     27 H5        -12.9580    14.4009   -11.7606 H          1  LIG1   0.0800
     28 H6        -14.0933    11.4068   -12.9937 H          1  LIG1   0.1500
     29 H7        -16.0887    11.0994   -14.4425 H          1  LIG1   0.1600
     30 H8        -17.0209    12.9779   -15.6526 H          1  LIG1   0.1600
     31 H9        -17.5584    15.1166   -16.6285 H          1  LIG1   0.4100
     32 H10       -17.0735    15.5546   -19.4245 H          1  LIG1   0.1400
     33 H11       -16.3802    16.9526   -21.4247 H          1  LIG1   0.1200
     34 H12       -16.8173    18.4888   -20.5023 H          1  LIG1   0.1100
     35 H13       -15.1160    17.9000   -18.7154 H          1  LIG1   0.1000
     36 H14       -14.6790    16.3637   -19.6377 H          1  LIG1   0.1200
     37 H15       -20.0991    17.5217   -16.5400 H          1  LIG1   0.1400
     38 H16       -19.8870    18.6421   -17.9245 H          1  LIG1   0.1300
     39 H17       -21.8183    16.2694   -17.6743 H          1  LIG1   0.1000
     40 H18       -22.1732    17.9406   -18.2225 H          1  LIG1   0.1200
     41 H19       -21.5899    15.8366   -19.9667 H          1  LIG1   0.1100
     42 H20       -21.2833    17.5568   -20.3534 H          1  LIG1   0.1100
     43 H21       -19.0247    17.1781   -20.2818 H          1  LIG1   0.1300
     44 H22       -19.3327    15.4531   -19.9337 H          1  LIG1   0.1400
     45 H23       -14.9662    17.5218   -15.2749 H          1  LIG1   0.2000
@<TRIPOS>BOND
     1    1    2 1
     2    1   25 1
     3    1   26 1
     4    1   27 1
     5    2   24 1
     6    2    3 2
     7    3    4 1
     8    3   28 1
     9    4    5 2
    10    4   29 1
    11    5    6 1
    12    5   30 1
    13    6   24 1
    14    6    7 1
    15    7    8 1
    16    7   22 2
    17    8    9 am
    18    8   31 1
    19    9   10 2
    20    9   11 1
    21   11   12 1
    22   11   13 1
    23   11   16 1
    24   13   15 1
    25   13   14 1
    26   13   32 1
    27   14   15 1
    28   14   33 1
    29   14   34 1
    30   15   35 1
    31   15   36 1
    32   16   17 1
    33   16   21 1
    34   16   18 1
    35   18   19 1
    36   18   37 1
    37   18   38 1
    38   19   20 1
    39   19   39 1
    40   19   40 1
    41   20   21 1
    42   20   41 1
    43   20   42 1
    44   21   43 1
    45   21   44 1
    46   22   23 1
    47   22   45 1
    48   23   24 2
##########                 Name:     ZINC000475202287
##########          Protonation:                 none
##########               SMILES:   OC[C@H](CC1=CC=C(F)C=C1)[NH2+]CC1=CC=C(Cl)C=C1N1C=NC=N1
##########            Long Name:   NO_LONG_NAME
##########          FlexRecCode: 1
##########               Number:                 5859
##########   Ligand Source File: /nfs/db/export/3D/FF/ADRO/FFADRO.xbou.db2.gz
##########                 Rank:                    1
##########               Setnum:                   71
##########             Matchnum:                    1
##########                Cloud:                    1
##########        Electrostatic:           -55.412052
##########                 Gist:             0.000000
##########        Van der Waals:           -27.192886
##########  Ligand Polar Desolv:            17.752447
########## Ligand Apolar Desolv:            -5.875813
##########      Internal Energy:             0.000000
##########      Receptor Energy:             0.000000
########## Receptor Desolvation:             0.000000
########## Receptor Hydrophobic:             0.000000
##########         Total Energy:           -70.728302
##########        Ligand Charge:             1.000000
##########            Arbitrary:    +999.9990
##########        Ligand Energy:             0.000000

@<TRIPOS>MOLECULE
 ZINC000475202287      none
   44    46     0     0     0



@<TRIPOS>ATOM
      1 O1        -19.3767    16.1368   -18.6897 O.3        1  LIG1  -0.5800
      2 C1        -18.2628    16.2383   -19.5792 C.3        1  LIG1   0.0500
      3 C2        -16.9773    16.4148   -18.7685 C.3        1  LIG1   0.0400
      4 H1        -17.0476    17.3225   -18.1691 H          1  LIG1   0.1500
      5 C3        -15.7847    16.5235   -19.7207 C.3        1  LIG1  -0.0900
      6 C4        -15.7074    17.9242   -20.2713 C.ar       1  LIG1  -0.1300
      7 C5        -16.3784    18.2462   -21.4363 C.ar       1  LIG1  -0.0700
      8 C6        -16.3084    19.5303   -21.9422 C.ar       1  LIG1  -0.1400
      9 C7        -15.5661    20.4946   -21.2816 C.ar       1  LIG1   0.1200
     10 F1        -15.4973    21.7504   -21.7750 F          1  LIG1  -0.1300
     11 C8        -14.8948    20.1708   -20.1147 C.ar       1  LIG1  -0.1400
     12 C9        -14.9703    18.8873   -19.6080 C.ar       1  LIG1  -0.1100
     13 N1        -16.7935    15.2568   -17.8835 N.4        1  LIG1  -0.5000
     14 H2        -17.6846    14.9846   -17.4963 H          1  LIG1   0.4300
     15 H3        -16.4070    14.4883   -18.4110 H          1  LIG1   0.4200
     16 C10       -15.8748    15.6139   -16.7942 C.3        1  LIG1   0.0400
     17 C11       -15.6862    14.4259   -15.8864 C.ar       1  LIG1  -0.1600
     18 C12       -16.3357    13.2381   -16.1591 C.ar       1  LIG1  -0.0500
     19 C13       -16.1639    12.1473   -15.3265 C.ar       1  LIG1  -0.1100
     20 C14       -15.3407    12.2424   -14.2183 C.ar       1  LIG1   0.0200
     21 Cl1       -15.1278    10.8710   -13.1756 Cl         1  LIG1  -0.0200
     22 C15       -14.6875    13.4291   -13.9412 C.ar       1  LIG1  -0.1300
     23 C16       -14.8549    14.5234   -14.7783 C.ar       1  LIG1   0.1900
     24 N2        -14.1935    15.7279   -14.5004 N.pl3      1  LIG1  -0.3500
     25 C17       -13.3566    15.9715   -13.4731 C.2        1  LIG1   0.3000
     26 N3        -12.9503    17.2117   -13.5671 N.2        1  LIG1  -0.5200
     27 C18       -13.5021    17.7890   -14.6340 C.2        1  LIG1   0.2500
     28 N4        -14.2666    16.9191   -15.2407 N.2        1  LIG1  -0.3800
     29 H4        -19.3226    15.3923   -18.0749 H          1  LIG1   0.4100
     30 H5        -18.1926    15.3306   -20.1785 H          1  LIG1   0.1000
     31 H6        -18.3993    17.0976   -20.2356 H          1  LIG1   0.0700
     32 H7        -14.8663    16.2943   -19.1801 H          1  LIG1   0.1100
     33 H8        -15.9093    15.8167   -20.5413 H          1  LIG1   0.1200
     34 H9        -16.9574    17.4939   -21.9514 H          1  LIG1   0.1400
     35 H10       -16.8321    19.7816   -22.8526 H          1  LIG1   0.1500
     36 H11       -14.3153    20.9221   -19.5988 H          1  LIG1   0.1400
     37 H12       -14.4470    18.6348   -18.6977 H          1  LIG1   0.1300
     38 H13       -14.9122    15.9081   -17.2124 H          1  LIG1   0.1600
     39 H14       -16.2923    16.4440   -16.2244 H          1  LIG1   0.1400
     40 H15       -16.9787    13.1608   -17.0233 H          1  LIG1   0.1600
     41 H16       -16.6735    11.2196   -15.5415 H          1  LIG1   0.1600
     42 H17       -14.0450    13.5033   -13.0762 H          1  LIG1   0.1600
     43 H18       -13.0710    15.2665   -12.7064 H          1  LIG1   0.2300
     44 H19       -13.3405    18.8093   -14.9488 H          1  LIG1   0.2300
@<TRIPOS>BOND
     1    1    2 1
     2    1   29 1
     3    2    3 1
     4    2   30 1
     5    2   31 1
     6    3    4 1
     7    3    5 1
     8    3   13 1
     9    5    6 1
    10    5   32 1
    11    5   33 1
    12    6   12 ar
    13    6    7 ar
    14    7    8 ar
    15    7   34 1
    16    8    9 ar
    17    8   35 1
    18    9   10 1
    19    9   11 ar
    20   11   12 ar
    21   11   36 1
    22   12   37 1
    23   13   14 1
    24   13   15 1
    25   13   16 1
    26   16   17 1
    27   16   38 1
    28   16   39 1
    29   17   23 ar
    30   17   18 ar
    31   18   19 ar
    32   18   40 1
    33   19   20 ar
    34   19   41 1
    35   20   21 1
    36   20   22 ar
    37   22   23 ar
    38   22   42 1
    39   23   24 1
    40   24   28 1
    41   24   25 1
    42   25   26 2
    43   25   43 1
    44   26   27 1
    45   27   28 2
    46   27   44 1
##########                 Name:     ZINC000246954730
##########          Protonation:                 none
##########               SMILES:   CC1=CC=CC(NC(=O)[C@H](C)[N@H+]2CC[C@H]3OCCC[C@H]3C2)=C1C
##########            Long Name:   NO_LONG_NAME
##########          FlexRecCode: 1
##########               Number:                 3063
##########   Ligand Source File: /nfs/db/export/3D/DG/ADMO/DGADMO.xaik.db2.gz
##########                 Rank:                    1
##########               Setnum:                   35
##########             Matchnum:                    1
##########                Cloud:                    1
##########        Electrostatic:           -45.101070
##########                 Gist:             0.000000
##########        Van der Waals:           -27.751631
##########  Ligand Polar Desolv:            12.802982
########## Ligand Apolar Desolv:            -5.180912
##########      Internal Energy:             0.000000
##########      Receptor Energy:             0.000000
########## Receptor Desolvation:             0.000000
########## Receptor Hydrophobic:             0.000000
##########         Total Energy:           -65.230629
##########        Ligand Charge:             1.000000
##########            Arbitrary:    +999.9990
##########        Ligand Energy:             0.000000

@<TRIPOS>MOLECULE
 ZINC000246954730      none
   52    54     0     0     0



@<TRIPOS>ATOM
      1 C1        -13.8017    13.3971   -13.7843 C.3        1  LIG1  -0.1200
      2 C2        -14.2334    14.5983   -14.5855 C.ar       1  LIG1  -0.0600
      3 C3        -13.6126    15.8181   -14.3901 C.ar       1  LIG1  -0.1200
      4 C4        -14.0062    16.9229   -15.1231 C.ar       1  LIG1  -0.1000
      5 C5        -15.0207    16.8106   -16.0532 C.ar       1  LIG1  -0.1200
      6 C6        -15.6460    15.5865   -16.2522 C.ar       1  LIG1   0.1200
      7 N1        -16.6740    15.4692   -17.1943 N.am       1  LIG1  -0.6400
      8 C7        -16.6810    16.2597   -18.2859 C.2        1  LIG1   0.5000
      9 O1        -15.7963    17.0728   -18.4516 O.2        1  LIG1  -0.5000
     10 C8        -17.7881    16.1334   -19.3005 C.3        1  LIG1   0.0100
     11 H1        -17.7942    15.1224   -19.7075 H          1  LIG1   0.1600
     12 C9        -17.5596    17.1373   -20.4322 C.3        1  LIG1  -0.1800
     13 N2        -19.0783    16.4091   -18.6545 N.4        1  LIG1  -0.3700
     14 H2        -19.2280    15.7466   -17.9084 H          1  LIG1   0.4300
     15 C10       -19.0672    17.7697   -18.1037 C.3        1  LIG1  -0.0100
     16 C11       -20.3779    18.0334   -17.3594 C.3        1  LIG1  -0.1300
     17 C12       -21.5500    17.8862   -18.3339 C.3        1  LIG1   0.0800
     18 H3        -22.4897    18.0182   -17.7974 H          1  LIG1   0.0900
     19 O2        -21.4406    18.8767   -19.3579 O.3        1  LIG1  -0.3800
     20 C13       -22.4910    18.8374   -20.3256 C.3        1  LIG1   0.0600
     21 C14       -22.4740    17.4830   -21.0394 C.3        1  LIG1  -0.1600
     22 C15       -22.6240    16.3671   -20.0010 C.3        1  LIG1  -0.1200
     23 C16       -21.5083    16.4888   -18.9590 C.3        1  LIG1  -0.1300
     24 H4        -21.6467    15.7317   -18.1872 H          1  LIG1   0.1100
     25 C17       -20.1558    16.2821   -19.6431 C.3        1  LIG1  -0.0100
     26 C18       -15.2450    14.4780   -15.5184 C.ar       1  LIG1  -0.1000
     27 C19       -15.9207    13.1478   -15.7312 C.3        1  LIG1  -0.1200
     28 H5        -12.9987    13.6830   -13.1050 H          1  LIG1   0.0800
     29 H6        -14.6477    13.0211   -13.2090 H          1  LIG1   0.0700
     30 H7        -13.4467    12.6186   -14.4594 H          1  LIG1   0.0700
     31 H8        -12.8190    15.9086   -13.6633 H          1  LIG1   0.1300
     32 H9        -13.5198    17.8746   -14.9677 H          1  LIG1   0.1300
     33 H10       -15.3278    17.6738   -16.6251 H          1  LIG1   0.1400
     34 H11       -17.3815    14.8190   -17.0618 H          1  LIG1   0.4200
     35 H12       -18.3604    17.0460   -21.1660 H          1  LIG1   0.1100
     36 H13       -17.5533    18.1486   -20.0253 H          1  LIG1   0.1000
     37 H14       -16.6024    16.9327   -20.9117 H          1  LIG1   0.0900
     38 H15       -18.2303    17.8748   -17.4133 H          1  LIG1   0.1400
     39 H16       -18.9597    18.4890   -18.9155 H          1  LIG1   0.1400
     40 H17       -20.4867    17.3142   -16.5478 H          1  LIG1   0.1000
     41 H18       -20.3680    19.0444   -16.9520 H          1  LIG1   0.1200
     42 H19       -23.4505    18.9731   -19.8263 H          1  LIG1   0.0600
     43 H20       -22.3442    19.6344   -21.0543 H          1  LIG1   0.1100
     44 H21       -23.3002    17.4345   -21.7486 H          1  LIG1   0.0900
     45 H22       -21.5293    17.3627   -21.5697 H          1  LIG1   0.0700
     46 H23       -23.5903    16.4584   -19.5049 H          1  LIG1   0.0900
     47 H24       -22.5572    15.3980   -20.4953 H          1  LIG1   0.0800
     48 H25       -20.0234    17.0350   -20.4202 H          1  LIG1   0.1300
     49 H26       -20.1239    15.2892   -20.0916 H          1  LIG1   0.1300
     50 H27       -16.6864    13.2483   -16.5002 H          1  LIG1   0.0800
     51 H28       -15.1819    12.4116   -16.0479 H          1  LIG1   0.0800
     52 H29       -16.3823    12.8216   -14.7992 H          1  LIG1   0.0600
@<TRIPOS>BOND
     1    1    2 1
     2    1   28 1
     3    1   29 1
     4    1   30 1
     5    2   26 ar
     6    2    3 ar
     7    3    4 ar
     8    3   31 1
     9    4    5 ar
    10    4   32 1
    11    5    6 ar
    12    5   33 1
    13    6    7 1
    14    6   26 ar
    15    7    8 am
    16    7   34 1
    17    8    9 2
    18    8   10 1
    19   10   11 1
    20   10   12 1
    21   10   13 1
    22   12   35 1
    23   12   36 1
    24   12   37 1
    25   13   14 1
    26   13   25 1
    27   13   15 1
    28   15   16 1
    29   15   38 1
    30   15   39 1
    31   16   17 1
    32   16   40 1
    33   16   41 1
    34   17   18 1
    35   17   23 1
    36   17   19 1
    37   19   20 1
    38   20   21 1
    39   20   42 1
    40   20   43 1
    41   21   22 1
    42   21   44 1
    43   21   45 1
    44   22   23 1
    45   22   46 1
    46   22   47 1
    47   23   24 1
    48   23   25 1
    49   25   48 1
    50   25   49 1
    51   26   27 1
    52   27   50 1
    53   27   51 1
    54   27   52 1
##########                 Name:     ZINC000345017701
##########          Protonation:                 none
##########               SMILES:   COC(=O)C1=C(C[NH2+]C[C@@H]2C[C@H](O)CN2CC2=CC=CC=C2)C=CO1
##########            Long Name:   NO_LONG_NAME
##########          FlexRecCode: 1
##########               Number:                   50
##########   Ligand Source File: /nfs/db/export/3D/ED/ADMO/EDADMO.xaax.db2.gz
##########                 Rank:                    1
##########               Setnum:                  398
##########             Matchnum:                    1
##########                Cloud:                    1
##########        Electrostatic:           -43.273460
##########                 Gist:             0.000000
##########        Van der Waals:           -32.698734
##########  Ligand Polar Desolv:            13.160122
########## Ligand Apolar Desolv:            -1.099100
##########      Internal Energy:             0.000000
##########      Receptor Energy:             0.000000
########## Receptor Desolvation:             0.000000
########## Receptor Hydrophobic:             0.000000
##########         Total Energy:           -63.911179
##########        Ligand Charge:             1.000000
##########            Arbitrary:    +999.9990
##########        Ligand Energy:             0.000000

@<TRIPOS>MOLECULE
 ZINC000345017701      none
   50    52     0     0     0



@<TRIPOS>ATOM
      1 C1        -13.4161    20.9847   -16.1765 C.3        1  LIG1   0.0300
      2 O1        -13.6829    19.6119   -15.7860 O.3        1  LIG1  -0.3300
      3 C2        -14.6605    18.9644   -16.4529 C.2        1  LIG1   0.5500
      4 O2        -15.2729    19.5325   -17.3369 O.2        1  LIG1  -0.5000
      5 C3        -14.9843    17.5771   -16.1125 C.2        1  LIG1  -0.0200
      6 C4        -15.9418    16.8064   -16.7093 C.2        1  LIG1  -0.1600
      7 C5        -16.8577    17.2191   -17.8326 C.3        1  LIG1   0.0700
      8 N1        -17.7386    16.0971   -18.1835 N.4        1  LIG1  -0.5000
      9 H1        -17.1799    15.3098   -18.4771 H          1  LIG1   0.4300
     10 H2        -18.2892    15.8375   -17.3788 H          1  LIG1   0.4300
     11 C6        -18.6314    16.4994   -19.2786 C.3        1  LIG1  -0.0300
     12 C7        -19.4797    17.6945   -18.8329 C.3        1  LIG1   0.0500
     13 H3        -18.8375    18.5509   -18.5640 H          1  LIG1   0.1200
     14 C8        -20.3421    17.3527   -17.6162 C.3        1  LIG1  -0.1600
     15 C9        -21.6504    16.8244   -18.2018 C.3        1  LIG1   0.1000
     16 H4        -22.5247    17.2585   -17.6845 H          1  LIG1   0.0800
     17 O3        -21.7032    15.4082   -18.0976 O.3        1  LIG1  -0.5600
     18 C10       -21.6321    17.2262   -19.6742 C.3        1  LIG1   0.0100
     19 N2        -20.5018    18.1486   -19.7818 N.3        1  LIG1  -0.4900
     20 C11       -20.0501    18.3379   -21.1491 C.3        1  LIG1   0.0800
     21 C12       -19.3449    19.6646   -21.2661 C.ar       1  LIG1  -0.1000
     22 C13       -20.0619    20.8029   -21.5843 C.ar       1  LIG1  -0.1100
     23 C14       -19.4149    22.0197   -21.6916 C.ar       1  LIG1  -0.1200
     24 C15       -18.0511    22.0984   -21.4800 C.ar       1  LIG1  -0.1100
     25 C16       -17.3343    20.9603   -21.1610 C.ar       1  LIG1  -0.1200
     26 C17       -17.9819    19.7442   -21.0495 C.ar       1  LIG1  -0.0900
     27 C18       -15.9071    15.5560   -16.0736 C.2        1  LIG1  -0.2100
     28 C19       -14.9426    15.6167   -15.1285 C.2        1  LIG1   0.0400
     29 O4        -14.3856    16.8341   -15.1585 O.3        1  LIG1  -0.1300
     30 H5        -12.6097    21.3868   -15.5632 H          1  LIG1   0.1200
     31 H6        -13.1233    21.0135   -17.2261 H          1  LIG1   0.0700
     32 H7        -14.3150    21.5844   -16.0335 H          1  LIG1   0.0800
     33 H8        -17.4613    18.0696   -17.5157 H          1  LIG1   0.1500
     34 H9        -16.2629    17.4996   -18.7019 H          1  LIG1   0.1500
     35 H10       -18.0366    16.7798   -20.1478 H          1  LIG1   0.1500
     36 H11       -19.2851    15.6668   -19.5389 H          1  LIG1   0.1400
     37 H12       -19.8499    16.5861   -16.9970 H          1  LIG1   0.0900
     38 H13       -20.5190    18.2507   -17.0034 H          1  LIG1   0.0900
     39 H14       -20.9878    14.9527   -18.5622 H          1  LIG1   0.3900
     40 H15       -21.4772    16.3517   -20.3108 H          1  LIG1   0.0700
     41 H16       -22.5629    17.7284   -19.9487 H          1  LIG1   0.1000
     42 H17       -19.3630    17.5360   -21.4192 H          1  LIG1   0.0900
     43 H18       -20.9085    18.3223   -21.8208 H          1  LIG1   0.0500
     44 H19       -21.1273    20.7412   -21.7495 H          1  LIG1   0.1200
     45 H20       -19.9749    22.9089   -21.9409 H          1  LIG1   0.1300
     46 H21       -17.5455    23.0491   -21.5646 H          1  LIG1   0.1300
     47 H22       -16.2687    21.0217   -20.9961 H          1  LIG1   0.1300
     48 H23       -17.4219    18.8551   -20.8001 H          1  LIG1   0.1200
     49 H24       -16.5334    14.7051   -16.2972 H          1  LIG1   0.1800
     50 H25       -14.6645    14.8141   -14.4614 H          1  LIG1   0.2300
@<TRIPOS>BOND
     1    1    2 1
     2    1   30 1
     3    1   31 1
     4    1   32 1
     5    2    3 1
     6    3    4 2
     7    3    5 1
     8    5   29 1
     9    5    6 2
    10    6    7 1
    11    6   27 1
    12    7    8 1
    13    7   33 1
    14    7   34 1
    15    8    9 1
    16    8   10 1
    17    8   11 1
    18   11   12 1
    19   11   35 1
    20   11   36 1
    21   12   13 1
    22   12   19 1
    23   12   14 1
    24   14   15 1
    25   14   37 1
    26   14   38 1
    27   15   16 1
    28   15   17 1
    29   15   18 1
    30   17   39 1
    31   18   19 1
    32   18   40 1
    33   18   41 1
    34   19   20 1
    35   20   21 1
    36   20   42 1
    37   20   43 1
    38   21   26 ar
    39   21   22 ar
    40   22   23 ar
    41   22   44 1
    42   23   24 ar
    43   23   45 1
    44   24   25 ar
    45   24   46 1
    46   25   26 ar
    47   25   47 1
    48   26   48 1
    49   27   28 2
    50   27   49 1
    51   28   29 1
    52   28   50 1
##########                 Name:     ZINC000518842964
##########          Protonation:                 none
##########               SMILES:   O[C@@H]1CC2=CC=CC=C2[C@H]1[NH2+]CC1=CN2C=CC(Br)=CC2=N1
##########            Long Name:   NO_LONG_NAME
##########          FlexRecCode: 1
##########               Number:                12726
##########   Ligand Source File: /nfs/db/export/3D/FF/ADMO/FFADMO.xbjd.db2.gz
##########                 Rank:                    1
##########               Setnum:                   71
##########             Matchnum:                    1
##########                Cloud:                    1
##########        Electrostatic:           -39.070091
##########                 Gist:             0.000000
##########        Van der Waals:           -33.314362
##########  Ligand Polar Desolv:            14.023018
########## Ligand Apolar Desolv:            -5.459602
##########      Internal Energy:             0.000000
##########      Receptor Energy:             0.000000
########## Receptor Desolvation:             0.000000
########## Receptor Hydrophobic:             0.000000
##########         Total Energy:           -63.821037
##########        Ligand Charge:             1.000000
##########            Arbitrary:    +999.9990
##########        Ligand Energy:             0.000000

@<TRIPOS>MOLECULE
 ZINC000518842964      none
   39    42     0     0     0



@<TRIPOS>ATOM
      1 O1        -17.6602    18.7571   -19.8244 O.3        1  LIG1  -0.5500
      2 C1        -18.4840    17.5970   -19.6921 C.3        1  LIG1   0.1000
      3 H1        -17.9086    16.6912   -19.8837 H          1  LIG1   0.0900
      4 C2        -19.7047    17.6808   -20.6329 C.3        1  LIG1  -0.1200
      5 C3        -20.8379    17.0284   -19.8704 C.ar       1  LIG1  -0.0600
      6 C4        -22.0549    16.5404   -20.3154 C.ar       1  LIG1  -0.1000
      7 C5        -22.9469    15.9783   -19.4227 C.ar       1  LIG1  -0.0800
      8 C6        -22.6243    15.9022   -18.0810 C.ar       1  LIG1  -0.1100
      9 C7        -21.4105    16.3887   -17.6351 C.ar       1  LIG1  -0.0900
     10 C8        -20.5153    16.9524   -18.5282 C.ar       1  LIG1  -0.1600
     11 C9        -19.1389    17.5457   -18.2954 C.3        1  LIG1   0.0900
     12 H2        -19.2253    18.5504   -17.8814 H          1  LIG1   0.1600
     13 N1        -18.3604    16.6882   -17.3918 N.4        1  LIG1  -0.5000
     14 H3        -18.8023    16.6663   -16.4850 H          1  LIG1   0.4300
     15 H4        -18.3188    15.7530   -17.7684 H          1  LIG1   0.4200
     16 C10       -16.9989    17.2241   -17.2602 C.3        1  LIG1   0.0900
     17 C11       -16.2002    16.3445   -16.3333 C.2        1  LIG1  -0.0200
     18 C12       -16.1677    14.9944   -16.3615 C.2        1  LIG1  -0.0400
     19 N2        -15.3268    14.5892   -15.3601 N.pl3      1  LIG1  -0.3600
     20 C13       -14.9258    13.3561   -14.9339 C.2        1  LIG1   0.0600
     21 C14       -14.0696    13.2316   -13.8987 C.2        1  LIG1  -0.1000
     22 C15       -13.5780    14.3741   -13.2440 C.2        1  LIG1  -0.0700
     23 Br1       -12.3775    14.1956   -11.7939 Br         1  LIG1   0.0000
     24 C16       -13.9700    15.6098   -13.6594 C.2        1  LIG1  -0.0500
     25 C17       -14.8648    15.7221   -14.7419 C.2        1  LIG1   0.2500
     26 N3        -15.4022    16.7700   -15.3507 N.2        1  LIG1  -0.4700
     27 H5        -18.1358    19.5919   -19.7151 H          1  LIG1   0.4100
     28 H6        -19.9445    18.7218   -20.8495 H          1  LIG1   0.1100
     29 H7        -19.5081    17.1370   -21.5568 H          1  LIG1   0.1000
     30 H8        -22.3077    16.5999   -21.3637 H          1  LIG1   0.1400
     31 H9        -23.8954    15.5990   -19.7730 H          1  LIG1   0.1400
     32 H10       -23.3205    15.4634   -17.3818 H          1  LIG1   0.1400
     33 H11       -21.1593    16.3292   -16.5864 H          1  LIG1   0.1300
     34 H12       -16.5215    17.2477   -18.2398 H          1  LIG1   0.1500
     35 H13       -17.0439    18.2344   -16.8535 H          1  LIG1   0.1500
     36 H14       -16.7049    14.3544   -17.0457 H          1  LIG1   0.2000
     37 H15       -15.2979    12.4716   -15.4297 H          1  LIG1   0.1800
     38 H16       -13.7608    12.2497   -13.5715 H          1  LIG1   0.1700
     39 H17       -13.5993    16.4950   -13.1639 H          1  LIG1   0.1700
@<TRIPOS>BOND
     1    1    2 1
     2    1   27 1
     3    2    3 1
     4    2   11 1
     5    2    4 1
     6    4    5 1
     7    4   28 1
     8    4   29 1
     9    5   10 ar
    10    5    6 ar
    11    6    7 ar
    12    6   30 1
    13    7    8 ar
    14    7   31 1
    15    8    9 ar
    16    8   32 1
    17    9   10 ar
    18    9   33 1
    19   10   11 1
    20   11   12 1
    21   11   13 1
    22   13   14 1
    23   13   15 1
    24   13   16 1
    25   16   17 1
    26   16   34 1
    27   16   35 1
    28   17   26 1
    29   17   18 2
    30   18   19 1
    31   18   36 1
    32   19   25 1
    33   19   20 1
    34   20   21 2
    35   20   37 1
    36   21   22 1
    37   21   38 1
    38   22   23 1
    39   22   24 2
    40   24   25 1
    41   24   39 1
    42   25   26 2
##########                 Name:     ZINC000539926398
##########          Protonation:                 none
##########               SMILES:   O=C(CCC1=CC=C(Cl)C=C1Cl)NCC[N@H+]1CC=CCC1
##########            Long Name:   NO_LONG_NAME
##########          FlexRecCode: 1
##########               Number:                 2698
##########   Ligand Source File: /nfs/db/export/3D/EG/ADRO/EGADRO.xbju.db2.gz
##########                 Rank:                    1
##########               Setnum:                  137
##########             Matchnum:                    1
##########                Cloud:                    1
##########        Electrostatic:           -39.198994
##########                 Gist:             0.000000
##########        Van der Waals:           -32.566826
##########  Ligand Polar Desolv:            13.852184
########## Ligand Apolar Desolv:            -6.090150
##########      Internal Energy:             0.000000
##########      Receptor Energy:             0.000000
########## Receptor Desolvation:             0.000000
########## Receptor Hydrophobic:             0.000000
##########         Total Energy:           -64.003792
##########        Ligand Charge:             1.000000
##########            Arbitrary:    +999.9990
##########        Ligand Energy:             0.000000

@<TRIPOS>MOLECULE
 ZINC000539926398      none
   42    43     0     0     0



@<TRIPOS>ATOM
      1 O1        -17.0568    18.1450   -15.8905 O.2        1  LIG1  -0.5200
      2 C1        -17.0969    16.9992   -16.2859 C.2        1  LIG1   0.5200
      3 C2        -16.7954    15.8649   -15.3406 C.3        1  LIG1  -0.1400
      4 C3        -15.5996    15.0676   -15.8655 C.3        1  LIG1  -0.0700
      5 C4        -15.2981    13.9334   -14.9202 C.ar       1  LIG1  -0.0800
      6 C5        -15.8984    12.7023   -15.1047 C.ar       1  LIG1  -0.0900
      7 C6        -15.6227    11.6614   -14.2377 C.ar       1  LIG1  -0.1000
      8 C7        -14.7454    11.8515   -13.1851 C.ar       1  LIG1  -0.0200
      9 Cl1       -14.3989    10.5441   -12.0968 Cl         1  LIG1  -0.0500
     10 C8        -14.1438    13.0836   -13.0002 C.ar       1  LIG1  -0.1000
     11 C9        -14.4161    14.1231   -13.8711 C.ar       1  LIG1  -0.0200
     12 Cl2       -13.6613    15.6693   -13.6402 Cl         1  LIG1  -0.0500
     13 N1        -17.4164    16.7399   -17.5694 N.am       1  LIG1  -0.7400
     14 C10       -17.7155    17.8422   -18.4867 C.3        1  LIG1   0.0900
     15 C11       -18.7115    17.3676   -19.5467 C.3        1  LIG1  -0.0200
     16 N2        -19.9500    16.9257   -18.8920 N.4        1  LIG1  -0.3800
     17 H1        -19.7244    16.4197   -18.0489 H          1  LIG1   0.4300
     18 C12       -20.7733    18.0941   -18.5584 C.3        1  LIG1   0.0300
     19 C13       -22.1226    17.6604   -18.0635 C.2        1  LIG1  -0.1900
     20 C14       -22.6082    16.4735   -18.2708 C.2        1  LIG1  -0.1300
     21 C15       -21.8564    15.4120   -19.0254 C.3        1  LIG1  -0.1200
     22 C16       -20.7049    16.0517   -19.8043 C.3        1  LIG1   0.0000
     23 H2        -16.5599    16.2662   -14.3549 H          1  LIG1   0.1000
     24 H3        -17.6645    15.2111   -15.2686 H          1  LIG1   0.1000
     25 H4        -15.8350    14.6663   -16.8513 H          1  LIG1   0.0900
     26 H5        -14.7305    15.7215   -15.9376 H          1  LIG1   0.0900
     27 H6        -16.5834    12.5534   -15.9263 H          1  LIG1   0.1400
     28 H7        -16.0926    10.6998   -14.3819 H          1  LIG1   0.1400
     29 H8        -13.4589    13.2325   -12.1786 H          1  LIG1   0.1500
     30 H9        -17.4484    15.8235   -17.8856 H          1  LIG1   0.4100
     31 H10       -18.1475    18.6726   -17.9283 H          1  LIG1   0.0900
     32 H11       -16.7965    18.1701   -18.9726 H          1  LIG1   0.0900
     33 H12       -18.9340    18.1878   -20.2294 H          1  LIG1   0.1400
     34 H13       -18.2795    16.5372   -20.1052 H          1  LIG1   0.1400
     35 H14       -20.2751    18.6765   -17.7834 H          1  LIG1   0.1400
     36 H15       -20.8970    18.7133   -19.4469 H          1  LIG1   0.1400
     37 H16       -22.7186    18.3697   -17.5084 H          1  LIG1   0.1500
     38 H17       -23.5897    16.2399   -17.8858 H          1  LIG1   0.1400
     39 H18       -21.4555    14.6819   -18.3223 H          1  LIG1   0.1100
     40 H19       -22.5321    14.9131   -19.7201 H          1  LIG1   0.1300
     41 H20       -21.1044    16.6443   -20.6273 H          1  LIG1   0.1300
     42 H21       -20.0497    15.2729   -20.1945 H          1  LIG1   0.1400
@<TRIPOS>BOND
     1    1    2 2
     2    2    3 1
     3    2   13 am
     4    3    4 1
     5    3   23 1
     6    3   24 1
     7    4    5 1
     8    4   25 1
     9    4   26 1
    10    5   11 ar
    11    5    6 ar
    12    6    7 ar
    13    6   27 1
    14    7    8 ar
    15    7   28 1
    16    8    9 1
    17    8   10 ar
    18   10   11 ar
    19   10   29 1
    20   11   12 1
    21   13   14 1
    22   13   30 1
    23   14   15 1
    24   14   31 1
    25   14   32 1
    26   15   16 1
    27   15   33 1
    28   15   34 1
    29   16   17 1
    30   16   22 1
    31   16   18 1
    32   18   19 1
    33   18   35 1
    34   18   36 1
    35   19   20 2
    36   19   37 1
    37   20   21 1
    38   20   38 1
    39   21   22 1
    40   21   39 1
    41   21   40 1
    42   22   41 1
    43   22   42 1
##########                 Name:     ZINC000602586979
##########          Protonation:                 none
##########               SMILES:   COC(=O)C1=C(C)NC(C[N@H+](C)C[C@H]2CCCC[C@H]2O)=C1
##########            Long Name:   NO_LONG_NAME
##########          FlexRecCode: 1
##########               Number:                 7627
##########   Ligand Source File: /nfs/db/export/3D/CE/ADRO/CEADRO.xahz.db2.gz
##########                 Rank:                    1
##########               Setnum:                  165
##########             Matchnum:                    1
##########                Cloud:                    1
##########        Electrostatic:           -45.169754
##########                 Gist:             0.000000
##########        Van der Waals:           -30.013527
##########  Ligand Polar Desolv:            14.659346
########## Ligand Apolar Desolv:            -4.124930
##########      Internal Energy:             0.000000
##########      Receptor Energy:             0.000000
########## Receptor Desolvation:             0.000000
########## Receptor Hydrophobic:             0.000000
##########         Total Energy:           -64.648865
##########        Ligand Charge:             1.000000
##########            Arbitrary:    +999.9990
##########        Ligand Energy:             0.000000

@<TRIPOS>MOLECULE
 ZINC000602586979      none
   48    49     0     0     0



@<TRIPOS>ATOM
      1 C1        -12.6331    14.0441   -12.1654 C.3        1  LIG1   0.0400
      2 O1        -13.6707    14.1110   -13.1790 O.3        1  LIG1  -0.3600
      3 C2        -13.8104    15.2799   -13.8354 C.2        1  LIG1   0.5300
      4 O2        -13.0846    16.2176   -13.5679 O.2        1  LIG1  -0.5100
      5 C3        -14.8411    15.4207   -14.8755 C.2        1  LIG1  -0.2200
      6 C4        -15.7400    14.4609   -15.2886 C.2        1  LIG1   0.1700
      7 C5        -15.8459    13.0583   -14.7476 C.3        1  LIG1  -0.1100
      8 N1        -16.5075    14.9929   -16.2582 N.pl3      1  LIG1  -0.5400
      9 C6        -16.1404    16.2844   -16.4998 C.2        1  LIG1  -0.0800
     10 C7        -16.7744    17.1979   -17.5170 C.3        1  LIG1   0.0800
     11 N2        -17.8531    16.4828   -18.2122 N.4        1  LIG1  -0.3900
     12 H1        -18.3631    15.9176   -17.5500 H          1  LIG1   0.4300
     13 C8        -17.2776    15.6194   -19.2521 C.3        1  LIG1  -0.0600
     14 C9        -18.7648    17.4541   -18.8314 C.3        1  LIG1   0.0000
     15 C10       -20.1106    16.7829   -19.1125 C.3        1  LIG1  -0.1000
     16 H2        -19.9422    15.7695   -19.4767 H          1  LIG1   0.1000
     17 C11       -20.9341    16.7316   -17.8240 C.3        1  LIG1  -0.1300
     18 C12       -22.2799    16.0605   -18.1052 C.3        1  LIG1  -0.1200
     19 C13       -23.0388    16.8632   -19.1638 C.3        1  LIG1  -0.1200
     20 C14       -22.2154    16.9144   -20.4524 C.3        1  LIG1  -0.1600
     21 C15       -20.8696    17.5857   -20.1712 C.3        1  LIG1   0.1200
     22 H3        -20.2829    17.6222   -21.0891 H          1  LIG1   0.0700
     23 O3        -21.0905    18.9143   -19.6938 O.3        1  LIG1  -0.5700
     24 C16       -15.1264    16.6138   -15.6808 C.2        1  LIG1  -0.0700
     25 H4        -12.6281    13.0511   -11.7156 H          1  LIG1   0.0700
     26 H5        -11.6638    14.2399   -12.6242 H          1  LIG1   0.0700
     27 H6        -12.8282    14.7907   -11.3956 H          1  LIG1   0.1100
     28 H7        -16.6465    12.5290   -15.2644 H          1  LIG1   0.0900
     29 H8        -14.9029    12.5353   -14.9067 H          1  LIG1   0.0800
     30 H9        -16.0650    13.0961   -13.6806 H          1  LIG1   0.1100
     31 H10       -17.2208    14.5245   -16.7196 H          1  LIG1   0.4200
     32 H11       -17.1844    18.0734   -17.0136 H          1  LIG1   0.1500
     33 H12       -16.0227    17.5135   -18.2405 H          1  LIG1   0.1400
     34 H13       -18.0780    15.0890   -19.7678 H          1  LIG1   0.1300
     35 H14       -16.7267    16.2301   -19.9673 H          1  LIG1   0.1200
     36 H15       -16.6012    14.8989   -18.7926 H          1  LIG1   0.1200
     37 H16       -18.9128    18.2959   -18.1549 H          1  LIG1   0.1400
     38 H17       -18.3343    17.8112   -19.7670 H          1  LIG1   0.1300
     39 H18       -20.3934    16.1598   -17.0699 H          1  LIG1   0.0500
     40 H19       -21.1025    17.7451   -17.4599 H          1  LIG1   0.0900
     41 H20       -22.1115    15.0470   -18.4693 H          1  LIG1   0.0600
     42 H21       -22.8666    16.0239   -17.1872 H          1  LIG1   0.0700
     43 H22       -23.9977    16.3850   -19.3641 H          1  LIG1   0.0700
     44 H23       -23.2073    17.8767   -18.7997 H          1  LIG1   0.0700
     45 H24       -22.0470    15.9009   -20.8165 H          1  LIG1   0.0800
     46 H25       -22.7561    17.4863   -21.2065 H          1  LIG1   0.0800
     47 H26       -20.2788    19.4006   -19.4945 H          1  LIG1   0.3900
     48 H27       -14.6179    17.5653   -15.6306 H          1  LIG1   0.1700
@<TRIPOS>BOND
     1    1    2 1
     2    1   25 1
     3    1   26 1
     4    1   27 1
     5    2    3 1
     6    3    4 2
     7    3    5 1
     8    5   24 1
     9    5    6 2
    10    6    7 1
    11    6    8 1
    12    7   28 1
    13    7   29 1
    14    7   30 1
    15    8    9 1
    16    8   31 1
    17    9   10 1
    18    9   24 2
    19   10   11 1
    20   10   32 1
    21   10   33 1
    22   11   12 1
    23   11   13 1
    24   11   14 1
    25   13   34 1
    26   13   35 1
    27   13   36 1
    28   14   15 1
    29   14   37 1
    30   14   38 1
    31   15   16 1
    32   15   21 1
    33   15   17 1
    34   17   18 1
    35   17   39 1
    36   17   40 1
    37   18   19 1
    38   18   41 1
    39   18   42 1
    40   19   20 1
    41   19   43 1
    42   19   44 1
    43   20   21 1
    44   20   45 1
    45   20   46 1
    46   21   22 1
    47   21   23 1
    48   23   47 1
    49   24   48 1
##########                 Name:     ZINC000377646411
##########          Protonation:                 none
##########               SMILES:   CCOC(=O)C1=C(NC(=O)C[N@H+]2CC[C@@](CO)(C(C)C)C2)N(C)N=C1
##########            Long Name:   NO_LONG_NAME
##########          FlexRecCode: 1
##########               Number:                 6378
##########   Ligand Source File: /nfs/db/export/3D/FC/ADMO/FCADMO.xvc.db2.gz
##########                 Rank:                    1
##########               Setnum:                   89
##########             Matchnum:                    1
##########                Cloud:                    1
##########        Electrostatic:           -48.010727
##########                 Gist:             0.000000
##########        Van der Waals:           -33.702259
##########  Ligand Polar Desolv:            16.044067
########## Ligand Apolar Desolv:            -2.264354
##########      Internal Energy:             0.000000
##########      Receptor Energy:             0.000000
########## Receptor Desolvation:             0.000000
########## Receptor Hydrophobic:             0.000000
##########         Total Energy:           -67.933273
##########        Ligand Charge:             1.000000
##########            Arbitrary:    +999.9990
##########        Ligand Energy:             0.000000

@<TRIPOS>MOLECULE
 ZINC000377646411      none
   54    55     0     0     0



@<TRIPOS>ATOM
      1 C1        -14.9762    19.5278   -19.4482 C.3        1  LIG1  -0.1600
      2 C2        -15.2151    19.6112   -17.9393 C.3        1  LIG1   0.0700
      3 O1        -15.2527    18.2715   -17.3805 O.3        1  LIG1  -0.3500
      4 C3        -14.8382    18.1283   -16.1055 C.2        1  LIG1   0.5500
      5 O2        -14.4558    19.0971   -15.4780 O.2        1  LIG1  -0.5300
      6 C4        -14.8485    16.8031   -15.4750 C.2        1  LIG1  -0.2700
      7 C5        -15.7207    15.7563   -15.7614 C.2        1  LIG1   0.3600
      8 N1        -16.7433    15.7699   -16.6952 N.am       1  LIG1  -0.6200
      9 C6        -17.3740    16.9247   -16.9871 C.2        1  LIG1   0.5100
     10 O3        -17.4769    17.7895   -16.1431 O.2        1  LIG1  -0.5100
     11 C7        -17.9511    17.1413   -18.3622 C.3        1  LIG1  -0.0200
     12 N2        -19.3392    16.6615   -18.3918 N.4        1  LIG1  -0.3800
     13 H1        -19.3726    15.6775   -18.1708 H          1  LIG1   0.4300
     14 C8        -20.1678    17.4310   -17.4286 C.3        1  LIG1  -0.0200
     15 C9        -21.6086    17.2314   -17.9619 C.3        1  LIG1  -0.1300
     16 C10       -21.4168    17.2614   -19.4957 C.3        1  LIG1  -0.0700
     17 C11       -22.3199    16.2230   -20.1642 C.3        1  LIG1   0.0800
     18 O4        -21.9891    14.9205   -19.6782 O.3        1  LIG1  -0.5600
     19 C12       -21.7207    18.6581   -20.0416 C.3        1  LIG1  -0.0800
     20 C13       -21.5251    18.6662   -21.5590 C.3        1  LIG1  -0.1600
     21 C14       -23.1676    19.0309   -19.7119 C.3        1  LIG1  -0.1600
     22 C15       -19.9350    16.9055   -19.7232 C.3        1  LIG1  -0.0100
     23 N3        -15.3831    14.7274   -14.9591 N.pl3      1  LIG1  -0.3400
     24 C16       -16.0394    13.4181   -14.9244 C.3        1  LIG1   0.1000
     25 N4        -14.2997    15.1197   -14.1657 N.2        1  LIG1  -0.2600
     26 C17       -13.9704    16.3445   -14.4651 C.2        1  LIG1   0.1200
     27 H2        -14.9480    20.5334   -19.8677 H          1  LIG1   0.0700
     28 H3        -14.0265    19.0279   -19.6386 H          1  LIG1   0.0700
     29 H4        -15.7839    18.9625   -19.9133 H          1  LIG1   0.0800
     30 H5        -14.4073    20.1762   -17.4742 H          1  LIG1   0.0700
     31 H6        -16.1648    20.1111   -17.7488 H          1  LIG1   0.0700
     32 H7        -17.0056    14.9484   -17.1391 H          1  LIG1   0.4400
     33 H8        -17.9291    18.2043   -18.6023 H          1  LIG1   0.1700
     34 H9        -17.3608    16.5910   -19.0948 H          1  LIG1   0.1700
     35 H10       -20.0695    17.0211   -16.4233 H          1  LIG1   0.1500
     36 H11       -19.8947    18.4861   -17.4433 H          1  LIG1   0.1400
     37 H12       -22.0086    16.2692   -17.6420 H          1  LIG1   0.1000
     38 H13       -22.2561    18.0464   -17.6381 H          1  LIG1   0.1200
     39 H14       -23.3617    16.4438   -19.9315 H          1  LIG1   0.0600
     40 H15       -22.1740    16.2559   -21.2439 H          1  LIG1   0.0500
     41 H16       -21.0749    14.6568   -19.8506 H          1  LIG1   0.4000
     42 H17       -21.0459    19.3817   -19.5844 H          1  LIG1   0.1000
     43 H18       -21.7416    19.6611   -21.9480 H          1  LIG1   0.0800
     44 H19       -20.4944    18.4007   -21.7939 H          1  LIG1   0.0600
     45 H20       -22.2000    17.9426   -22.0162 H          1  LIG1   0.0500
     46 H21       -23.3839    20.0258   -20.1008 H          1  LIG1   0.0700
     47 H22       -23.8423    18.3073   -20.1692 H          1  LIG1   0.0700
     48 H23       -23.3069    19.0251   -18.6309 H          1  LIG1   0.0500
     49 H24       -19.4243    17.7358   -20.2111 H          1  LIG1   0.1400
     50 H25       -19.8587    16.0074   -20.3363 H          1  LIG1   0.1400
     51 H26       -15.5536    12.7878   -14.1796 H          1  LIG1   0.0900
     52 H27       -17.0900    13.5452   -14.6634 H          1  LIG1   0.1000
     53 H28       -15.9629    12.9472   -15.9044 H          1  LIG1   0.0800
     54 H29       -13.1696    16.9131   -14.0157 H          1  LIG1   0.2100
@<TRIPOS>BOND
     1    1    2 1
     2    1   27 1
     3    1   28 1
     4    1   29 1
     5    2    3 1
     6    2   30 1
     7    2   31 1
     8    3    4 1
     9    4    5 2
    10    4    6 1
    11    6   26 1
    12    6    7 2
    13    7    8 1
    14    7   23 1
    15    8    9 am
    16    8   32 1
    17    9   10 2
    18    9   11 1
    19   11   12 1
    20   11   33 1
    21   11   34 1
    22   12   13 1
    23   12   22 1
    24   12   14 1
    25   14   15 1
    26   14   35 1
    27   14   36 1
    28   15   16 1
    29   15   37 1
    30   15   38 1
    31   16   17 1
    32   16   19 1
    33   16   22 1
    34   17   18 1
    35   17   39 1
    36   17   40 1
    37   18   41 1
    38   19   20 1
    39   19   21 1
    40   19   42 1
    41   20   43 1
    42   20   44 1
    43   20   45 1
    44   21   46 1
    45   21   47 1
    46   21   48 1
    47   22   49 1
    48   22   50 1
    49   23   24 1
    50   23   25 1
    51   24   51 1
    52   24   52 1
    53   24   53 1
    54   25   26 2
    55   26   54 1
##########                 Name:     ZINC000080960073
##########          Protonation:                 none
##########               SMILES:   C[C@@H](NC(=O)C[N@H+]1CCC[C@H](C2=NC=CN2)C1)C1=CC=C(Cl)C=C1
##########            Long Name:   NO_LONG_NAME
##########          FlexRecCode: 1
##########               Number:                 1385
##########   Ligand Source File: /nfs/db/export/3D/EG/ADMO/EGADMO.xbgd.db2.gz
##########                 Rank:                    1
##########               Setnum:                   59
##########             Matchnum:                    1
##########                Cloud:                    1
##########        Electrostatic:           -48.045380
##########                 Gist:             0.000000
##########        Van der Waals:           -33.932213
##########  Ligand Polar Desolv:            16.424501
########## Ligand Apolar Desolv:            -4.928359
##########      Internal Energy:             0.000000
##########      Receptor Energy:             0.000000
########## Receptor Desolvation:             0.000000
########## Receptor Hydrophobic:             0.000000
##########         Total Energy:           -70.481453
##########        Ligand Charge:             1.000000
##########            Arbitrary:    +999.9990
##########        Ligand Energy:             0.000000

@<TRIPOS>MOLECULE
 ZINC000080960073      none
   48    50     0     0     0



@<TRIPOS>ATOM
      1 C1        -15.6707    17.3869   -18.0397 C.3        1  LIG1  -0.1600
      2 C2        -16.4222    17.2080   -16.7190 C.3        1  LIG1   0.1900
      3 H1        -16.5163    18.1729   -16.2209 H          1  LIG1   0.1100
      4 N1        -17.7560    16.6639   -16.9859 N.am       1  LIG1  -0.7000
      5 C3        -18.7843    17.4966   -17.2425 C.2        1  LIG1   0.5100
      6 O1        -18.6054    18.6961   -17.2524 O.2        1  LIG1  -0.5300
      7 C4        -20.1564    16.9370   -17.5170 C.3        1  LIG1  -0.0500
      8 N2        -20.1023    16.0652   -18.6982 N.4        1  LIG1  -0.3600
      9 H2        -19.4578    15.3081   -18.5269 H          1  LIG1   0.4400
     10 C5        -21.4385    15.5182   -18.9623 C.3        1  LIG1  -0.0200
     11 C6        -22.4361    16.6642   -19.1446 C.3        1  LIG1  -0.1400
     12 C7        -21.9961    17.5337   -20.3259 C.3        1  LIG1  -0.1400
     13 C8        -20.5724    18.0382   -20.0733 C.3        1  LIG1  -0.0100
     14 H3        -20.5627    18.6717   -19.1863 H          1  LIG1   0.1200
     15 C9        -20.1014    18.8326   -21.2642 C.2        1  LIG1   0.1800
     16 N3        -20.4725    18.6417   -22.5007 N.2        1  LIG1  -0.4700
     17 C10       -19.8533    19.5314   -23.2906 C.2        1  LIG1  -0.0200
     18 C11       -19.0687    20.3030   -22.5142 C.2        1  LIG1  -0.0300
     19 N4        -19.2298    19.8634   -21.2278 N.pl3      1  LIG1  -0.5600
     20 C12       -19.6456    16.8418   -19.8571 C.3        1  LIG1   0.0000
     21 C13       -15.6601    16.2571   -15.8323 C.ar       1  LIG1  -0.1100
     22 C14       -15.9110    14.8992   -15.8985 C.ar       1  LIG1  -0.1000
     23 C15       -15.2125    14.0266   -15.0856 C.ar       1  LIG1  -0.1000
     24 C16       -14.2619    14.5124   -14.2054 C.ar       1  LIG1  -0.0300
     25 Cl1       -13.3845    13.4167   -13.1839 Cl         1  LIG1  -0.0500
     26 C17       -14.0112    15.8715   -14.1395 C.ar       1  LIG1  -0.1000
     27 C18       -14.7065    16.7424   -14.9571 C.ar       1  LIG1  -0.0900
     28 H4        -15.5765    16.4220   -18.5378 H          1  LIG1   0.0700
     29 H5        -16.2217    18.0747   -18.6809 H          1  LIG1   0.0800
     30 H6        -14.6782    17.7915   -17.8410 H          1  LIG1   0.0700
     31 H7        -17.8991    15.7046   -16.9781 H          1  LIG1   0.4100
     32 H8        -20.4929    16.3607   -16.6552 H          1  LIG1   0.1600
     33 H9        -20.8524    17.7555   -17.7012 H          1  LIG1   0.1600
     34 H10       -21.4105    14.9138   -19.8690 H          1  LIG1   0.1300
     35 H11       -21.7489    14.8970   -18.1221 H          1  LIG1   0.1500
     36 H12       -23.4272    16.2559   -19.3423 H          1  LIG1   0.1200
     37 H13       -22.4651    17.2690   -18.2382 H          1  LIG1   0.0900
     38 H14       -22.0162    16.9422   -21.2412 H          1  LIG1   0.0800
     39 H15       -22.6717    18.3832   -20.4246 H          1  LIG1   0.1000
     40 H16       -19.9644    19.6146   -24.3616 H          1  LIG1   0.1800
     41 H17       -18.4371    21.1151   -22.8426 H          1  LIG1   0.1900
     42 H18       -18.7948    20.2219   -20.4384 H          1  LIG1   0.4200
     43 H19       -18.6309    17.1967   -19.6771 H          1  LIG1   0.1400
     44 H20       -19.6563    16.2093   -20.7448 H          1  LIG1   0.1400
     45 H21       -16.6533    14.5202   -16.5853 H          1  LIG1   0.1300
     46 H22       -15.4089    12.9659   -15.1370 H          1  LIG1   0.1400
     47 H23       -13.2695    16.2511   -13.4525 H          1  LIG1   0.1400
     48 H24       -14.5106    17.8033   -14.9061 H          1  LIG1   0.1400
@<TRIPOS>BOND
     1    1    2 1
     2    1   28 1
     3    1   29 1
     4    1   30 1
     5    2    3 1
     6    2    4 1
     7    2   21 1
     8    4    5 am
     9    4   31 1
    10    5    6 2
    11    5    7 1
    12    7    8 1
    13    7   32 1
    14    7   33 1
    15    8    9 1
    16    8   20 1
    17    8   10 1
    18   10   11 1
    19   10   34 1
    20   10   35 1
    21   11   12 1
    22   11   36 1
    23   11   37 1
    24   12   13 1
    25   12   38 1
    26   12   39 1
    27   13   14 1
    28   13   15 1
    29   13   20 1
    30   15   19 1
    31   15   16 2
    32   16   17 1
    33   17   18 2
    34   17   40 1
    35   18   19 1
    36   18   41 1
    37   19   42 1
    38   20   43 1
    39   20   44 1
    40   21   27 ar
    41   21   22 ar
    42   22   23 ar
    43   22   45 1
    44   23   24 ar
    45   23   46 1
    46   24   25 1
    47   24   26 ar
    48   26   27 ar
    49   26   47 1
    50   27   48 1
##########                 Name:     ZINC000488230856
##########          Protonation:                 none
##########               SMILES:   CCC1CCC([N@H+](CCO)CC(=O)NC2=CC(F)=CC(F)=C2)CC1
##########            Long Name:   NO_LONG_NAME
##########          FlexRecCode: 1
##########               Number:                 5276
##########   Ligand Source File: /nfs/db/export/3D/EG/ADRO/EGADRO.xafj.db2.gz
##########                 Rank:                    1
##########               Setnum:                  210
##########             Matchnum:                    1
##########                Cloud:                    1
##########        Electrostatic:           -52.701077
##########                 Gist:             0.000000
##########        Van der Waals:           -30.234539
##########  Ligand Polar Desolv:            15.470854
########## Ligand Apolar Desolv:            -3.719933
##########      Internal Energy:             0.000000
##########      Receptor Energy:             0.000000
########## Receptor Desolvation:             0.000000
########## Receptor Hydrophobic:             0.000000
##########         Total Energy:           -71.184692
##########        Ligand Charge:             1.000000
##########            Arbitrary:    +999.9990
##########        Ligand Energy:             0.000000

@<TRIPOS>MOLECULE
 ZINC000488230856      none
   51    52     0     0     0



@<TRIPOS>ATOM
      1 C1        -23.3572    18.7972   -19.9482 C.3        1  LIG1  -0.1600
      2 C2        -21.8608    19.0368   -20.1584 C.3        1  LIG1  -0.1200
      3 C3        -21.2696    17.8860   -20.9775 C.3        1  LIG1  -0.1000
      4 C4        -19.7921    18.1343   -21.3186 C.3        1  LIG1  -0.1100
      5 C5        -18.8629    17.9645   -20.1165 C.3        1  LIG1  -0.1400
      6 C6        -19.0664    16.6045   -19.4542 C.3        1  LIG1   0.0200
      7 N1        -18.2229    16.5343   -18.2312 N.4        1  LIG1  -0.3700
      8 H1        -18.5762    15.8133   -17.6200 H          1  LIG1   0.4400
      9 C7        -18.2599    17.8276   -17.5357 C.3        1  LIG1  -0.0200
     10 C8        -17.8359    17.6354   -16.0783 C.3        1  LIG1   0.0500
     11 O1        -18.7315    16.7244   -15.4380 O.3        1  LIG1  -0.5700
     12 C9        -16.8383    16.2207   -18.6087 C.3        1  LIG1  -0.0400
     13 C10       -16.1032    15.6728   -17.4128 C.2        1  LIG1   0.5000
     14 O2        -15.1195    16.2436   -16.9918 O.2        1  LIG1  -0.4900
     15 N2        -16.5390    14.5483   -16.8110 N.am       1  LIG1  -0.6500
     16 C11       -15.8566    14.0396   -15.7006 C.ar       1  LIG1   0.1800
     17 C12       -15.1871    14.9007   -14.8414 C.ar       1  LIG1  -0.1800
     18 C13       -14.5129    14.3956   -13.7441 C.ar       1  LIG1   0.1600
     19 F1        -13.8613    15.2331   -12.9078 F          1  LIG1  -0.1200
     20 C14       -14.5056    13.0323   -13.5020 C.ar       1  LIG1  -0.1900
     21 C15       -15.1722    12.1717   -14.3579 C.ar       1  LIG1   0.1600
     22 F2        -15.1637    10.8419   -14.1196 F          1  LIG1  -0.1200
     23 C16       -15.8525    12.6734   -15.4531 C.ar       1  LIG1  -0.1700
     24 C17       -20.5220    16.3630   -19.0639 C.3        1  LIG1  -0.1500
     25 C18       -21.4490    16.5352   -20.2676 C.3        1  LIG1  -0.1100
     26 H2        -23.7780    19.6164   -19.3652 H          1  LIG1   0.0600
     27 H3        -23.8564    18.7461   -20.9159 H          1  LIG1   0.0600
     28 H4        -23.5034    17.8585   -19.4140 H          1  LIG1   0.0600
     29 H5        -21.7146    19.9756   -20.6928 H          1  LIG1   0.0600
     30 H6        -21.3617    19.0880   -19.1907 H          1  LIG1   0.0700
     31 H7        -21.8349    17.8322   -21.9507 H          1  LIG1   0.0900
     32 H8        -19.4860    17.4341   -22.1167 H          1  LIG1   0.0800
     33 H9        -19.6842    19.1581   -21.7200 H          1  LIG1   0.0900
     34 H10       -17.8209    18.0557   -20.4481 H          1  LIG1   0.0900
     35 H11       -19.0652    18.7587   -19.3870 H          1  LIG1   0.0900
     36 H12       -18.7344    15.8108   -20.1385 H          1  LIG1   0.1400
     37 H13       -17.5768    18.5225   -18.0242 H          1  LIG1   0.1500
     38 H14       -19.2726    18.2295   -17.5696 H          1  LIG1   0.1400
     39 H15       -16.8233    17.2336   -16.0446 H          1  LIG1   0.0900
     40 H16       -17.8635    18.5951   -15.5623 H          1  LIG1   0.0700
     41 H17       -18.7586    15.8477   -15.8454 H          1  LIG1   0.4100
     42 H18       -16.8385    15.4782   -19.4067 H          1  LIG1   0.1700
     43 H19       -16.3423    17.1271   -18.9561 H          1  LIG1   0.1700
     44 H20       -17.3258    14.0916   -17.1477 H          1  LIG1   0.4300
     45 H21       -15.1925    15.9642   -15.0299 H          1  LIG1   0.1500
     46 H22       -13.9791    12.6395   -12.6448 H          1  LIG1   0.1600
     47 H23       -16.3723    12.0019   -16.1205 H          1  LIG1   0.1600
     48 H24       -20.6287    15.3456   -18.6671 H          1  LIG1   0.0900
     49 H25       -20.8116    17.0731   -18.2792 H          1  LIG1   0.0900
     50 H26       -22.4984    16.4418   -19.9348 H          1  LIG1   0.0900
     51 H27       -21.2600    15.7220   -20.9914 H          1  LIG1   0.0800
@<TRIPOS>BOND
     1    1    2 1
     2    1   26 1
     3    1   27 1
     4    1   28 1
     5    2    3 1
     6    2   29 1
     7    2   30 1
     8    3   25 1
     9    3    4 1
    10    3   31 1
    11    4    5 1
    12    4   32 1
    13    4   33 1
    14    5    6 1
    15    5   34 1
    16    5   35 1
    17    6    7 1
    18    6   24 1
    19    6   36 1
    20    7    8 1
    21    7    9 1
    22    7   12 1
    23    9   10 1
    24    9   37 1
    25    9   38 1
    26   10   11 1
    27   10   39 1
    28   10   40 1
    29   11   41 1
    30   12   13 1
    31   12   42 1
    32   12   43 1
    33   13   14 2
    34   13   15 am
    35   15   16 1
    36   15   44 1
    37   16   23 ar
    38   16   17 ar
    39   17   18 ar
    40   17   45 1
    41   18   19 1
    42   18   20 ar
    43   20   21 ar
    44   20   46 1
    45   21   22 1
    46   21   23 ar
    47   23   47 1
    48   24   25 1
    49   24   48 1
    50   24   49 1
    51   25   50 1
    52   25   51 1
##########                 Name:     ZINC000301254546
##########          Protonation:                 none
##########               SMILES:   C[C@@H](CNC1=C([N+](=O)[O-])N2C=CSC2=N1)[N@H+](C)CC1=CC=CC=C1
##########            Long Name:   NO_LONG_NAME
##########          FlexRecCode: 1
##########               Number:                 8167
##########   Ligand Source File: /nfs/db/export/3D/EG/BDRO/EGBDRO.xbp.db2.gz
##########                 Rank:                    1
##########               Setnum:                   49
##########             Matchnum:                    1
##########                Cloud:                    1
##########        Electrostatic:           -35.024208
##########                 Gist:             0.000000
##########        Van der Waals:           -34.667686
##########  Ligand Polar Desolv:            13.315601
########## Ligand Apolar Desolv:            -7.834464
##########      Internal Energy:             0.000000
##########      Receptor Energy:             0.000000
########## Receptor Desolvation:             0.000000
########## Receptor Hydrophobic:             0.000000
##########         Total Energy:           -64.210754
##########        Ligand Charge:             1.000000
##########            Arbitrary:    +999.9990
##########        Ligand Energy:             0.000000

@<TRIPOS>MOLECULE
 ZINC000301254546      none
   44    46     0     0     0



@<TRIPOS>ATOM
      1 C1        -16.5388    18.2621   -17.5658 C.3        1  LIG1  -0.1800
      2 C2        -16.8497    16.7673   -17.4680 C.3        1  LIG1   0.0100
      3 H1        -15.9870    16.1937   -17.8074 H          1  LIG1   0.1500
      4 C3        -17.1628    16.4055   -16.0148 C.3        1  LIG1   0.1100
      5 N1        -16.9913    14.9633   -15.8228 N.pl3      1  LIG1  -0.7300
      6 C4        -16.0569    14.4857   -14.8908 C.2        1  LIG1   0.4100
      7 C5        -15.5193    13.2486   -14.8737 C.2        1  LIG1  -0.0500
      8 N2        -15.8065    12.1492   -15.8336 N.pl3      1  LIG1   0.0400
      9 O1        -16.5958    12.3266   -16.7441 O.2        1  LIG1  -0.1200
     10 O2        -15.2524    11.0717   -15.7090 O.2        1  LIG1  -0.1100
     11 N3        -14.6427    13.1918   -13.7883 N.pl3      1  LIG1  -0.3900
     12 C6        -13.7916    12.2911   -13.1900 C.2        1  LIG1   0.0200
     13 C7        -13.1137    12.6716   -12.1212 C.2        1  LIG1  -0.1700
     14 S1        -13.5939    14.3523   -11.8263 S.3        1  LIG1   0.2400
     15 C8        -14.7034    14.4183   -13.2041 C.2        1  LIG1   0.2200
     16 N4        -15.5405    15.1837   -13.8669 N.2        1  LIG1  -0.4600
     17 N5        -18.0098    16.4521   -18.3121 N.4        1  LIG1  -0.3900
     18 H2        -18.4170    15.5791   -18.0120 H          1  LIG1   0.4200
     19 C9        -17.5799    16.3362   -19.7120 C.3        1  LIG1  -0.0500
     20 C10       -19.0073    17.5241   -18.1936 C.3        1  LIG1   0.0400
     21 C11       -20.3535    17.0085   -18.6327 C.ar       1  LIG1  -0.1600
     22 C12       -20.7336    17.1098   -19.9580 C.ar       1  LIG1  -0.1000
     23 C13       -21.9685    16.6369   -20.3608 C.ar       1  LIG1  -0.1100
     24 C14       -22.8231    16.0623   -19.4387 C.ar       1  LIG1  -0.0800
     25 C15       -22.4425    15.9602   -18.1136 C.ar       1  LIG1  -0.1100
     26 C16       -21.2059    16.4292   -17.7115 C.ar       1  LIG1  -0.0900
     27 H3        -17.4013    18.8357   -17.2265 H          1  LIG1   0.1100
     28 H4        -15.6778    18.4959   -16.9395 H          1  LIG1   0.0900
     29 H5        -16.3154    18.5198   -18.6011 H          1  LIG1   0.0900
     30 H6        -16.4850    16.9435   -15.3522 H          1  LIG1   0.1100
     31 H7        -18.1917    16.6827   -15.7851 H          1  LIG1   0.1000
     32 H8        -17.5234    14.3383   -16.3398 H          1  LIG1   0.4100
     33 H9        -13.6801    11.2925   -13.5858 H          1  LIG1   0.1900
     34 H10       -12.4139    12.0821   -11.5476 H          1  LIG1   0.2300
     35 H11       -18.4408    16.1023   -20.3385 H          1  LIG1   0.1300
     36 H12       -17.1401    17.2793   -20.0364 H          1  LIG1   0.1300
     37 H13       -16.8397    15.5408   -19.8001 H          1  LIG1   0.1300
     38 H14       -19.0652    17.8533   -17.1560 H          1  LIG1   0.1400
     39 H15       -18.7158    18.3632   -18.8251 H          1  LIG1   0.1400
     40 H16       -20.0659    17.5588   -20.6785 H          1  LIG1   0.1300
     41 H17       -22.2657    16.7166   -21.3962 H          1  LIG1   0.1400
     42 H18       -23.7881    15.6935   -19.7533 H          1  LIG1   0.1400
     43 H19       -23.1103    15.5116   -17.3931 H          1  LIG1   0.1400
     44 H20       -20.9087    16.3495   -16.6763 H          1  LIG1   0.1300
@<TRIPOS>BOND
     1    1    2 1
     2    1   27 1
     3    1   28 1
     4    1   29 1
     5    2    3 1
     6    2    4 1
     7    2   17 1
     8    4    5 1
     9    4   30 1
    10    4   31 1
    11    5    6 1
    12    5   32 1
    13    6   16 1
    14    6    7 2
    15    7    8 1
    16    7   11 1
    17    8    9 2
    18    8   10 2
    19   11   15 1
    20   11   12 1
    21   12   13 2
    22   12   33 1
    23   13   14 1
    24   13   34 1
    25   14   15 1
    26   15   16 2
    27   17   18 1
    28   17   19 1
    29   17   20 1
    30   19   35 1
    31   19   36 1
    32   19   37 1
    33   20   21 1
    34   20   38 1
    35   20   39 1
    36   21   26 ar
    37   21   22 ar
    38   22   23 ar
    39   22   40 1
    40   23   24 ar
    41   23   41 1
    42   24   25 ar
    43   24   42 1
    44   25   26 ar
    45   25   43 1
    46   26   44 1
##########                 Name:     ZINC000362128724
##########          Protonation:                 none
##########               SMILES:   C[N@@H+](CCNC1=NC=C(C#N)C=C1Cl)CC1=CC=C(F)C=C1
##########            Long Name:   NO_LONG_NAME
##########          FlexRecCode: 1
##########               Number:                 2257
##########   Ligand Source File: /nfs/db/export/3D/DG/EDMO/DGEDMO.xbk.db2.gz
##########                 Rank:                    1
##########               Setnum:                   74
##########             Matchnum:                    1
##########                Cloud:                    1
##########        Electrostatic:           -38.906624
##########                 Gist:             0.000000
##########        Van der Waals:           -36.352764
##########  Ligand Polar Desolv:            17.424288
########## Ligand Apolar Desolv:            -6.010065
##########      Internal Energy:             0.000000
##########      Receptor Energy:             0.000000
########## Receptor Desolvation:             0.000000
########## Receptor Hydrophobic:             0.000000
##########         Total Energy:           -63.845161
##########        Ligand Charge:             1.000000
##########            Arbitrary:    +999.9990
##########        Ligand Energy:             0.000000

@<TRIPOS>MOLECULE
 ZINC000362128724      none
   39    40     0     0     0



@<TRIPOS>ATOM
      1 C1        -18.2008    16.2879   -19.8398 C.3        1  LIG1  -0.0600
      2 N1        -18.2189    16.6512   -18.4165 N.4        1  LIG1  -0.3800
      3 H1        -18.3409    15.8196   -17.8585 H          1  LIG1   0.4300
      4 C2        -16.9489    17.2979   -18.0601 C.3        1  LIG1  -0.0300
      5 C3        -15.8760    16.2292   -17.8419 C.3        1  LIG1   0.1100
      6 N2        -16.2902    15.3357   -16.7573 N.pl3      1  LIG1  -0.7100
      7 C4        -15.5053    15.2146   -15.6209 C.ar       1  LIG1   0.4300
      8 N3        -14.6295    16.1651   -15.3275 N.ar       1  LIG1  -0.5200
      9 C5        -13.8629    16.0926   -14.2587 C.ar       1  LIG1   0.2100
     10 C6        -13.9523    15.0002   -13.3948 C.ar       1  LIG1  -0.1100
     11 C7        -13.1186    14.9229   -12.2329 C.1        1  LIG1   0.2500
     12 N4        -12.4574    14.8616   -11.3113 N.1        1  LIG1  -0.3900
     13 C8        -14.8712    13.9785   -13.6808 C.ar       1  LIG1   0.0200
     14 C9        -15.6524    14.0972   -14.7995 C.ar       1  LIG1  -0.1500
     15 Cl1       -16.8048    12.8618   -15.1988 Cl         1  LIG1  -0.0400
     16 C10       -19.3291    17.5790   -18.1622 C.3        1  LIG1   0.0500
     17 C11       -20.6318    16.9156   -18.5277 C.ar       1  LIG1  -0.1800
     18 C12       -21.1283    17.0299   -19.8130 C.ar       1  LIG1  -0.0600
     19 C13       -22.3229    16.4221   -20.1494 C.ar       1  LIG1  -0.1500
     20 C14       -23.0224    15.6980   -19.1989 C.ar       1  LIG1   0.1400
     21 F1        -24.1901    15.1029   -19.5269 F          1  LIG1  -0.1200
     22 C15       -22.5241    15.5838   -17.9122 C.ar       1  LIG1  -0.1500
     23 C16       -21.3268    16.1885   -17.5794 C.ar       1  LIG1  -0.0600
     24 H2        -18.0689    17.1862   -20.4425 H          1  LIG1   0.1300
     25 H3        -17.3770    15.5995   -20.0286 H          1  LIG1   0.1300
     26 H4        -19.1431    15.8080   -20.1042 H          1  LIG1   0.1300
     27 H5        -16.6408    17.9627   -18.8672 H          1  LIG1   0.1400
     28 H6        -17.0792    17.8744   -17.1443 H          1  LIG1   0.1400
     29 H7        -15.7457    15.6528   -18.7578 H          1  LIG1   0.0900
     30 H8        -14.9337    16.7091   -17.5775 H          1  LIG1   0.0900
     31 H9        -17.1136    14.8288   -16.8344 H          1  LIG1   0.4200
     32 H10       -13.1594    16.8849   -14.0494 H          1  LIG1   0.1800
     33 H11       -14.9631    13.1204   -13.0314 H          1  LIG1   0.1600
     34 H12       -19.3425    17.8486   -17.1060 H          1  LIG1   0.1400
     35 H13       -19.1972    18.4776   -18.7648 H          1  LIG1   0.1400
     36 H14       -20.5825    17.5948   -20.5542 H          1  LIG1   0.1400
     37 H15       -22.7108    16.5120   -21.1534 H          1  LIG1   0.1500
     38 H16       -23.0690    15.0194   -17.1699 H          1  LIG1   0.1500
     39 H17       -20.9377    16.0993   -16.5758 H          1  LIG1   0.1400
@<TRIPOS>BOND
     1    1    2 1
     2    1   24 1
     3    1   25 1
     4    1   26 1
     5    2    3 1
     6    2    4 1
     7    2   16 1
     8    4    5 1
     9    4   27 1
    10    4   28 1
    11    5    6 1
    12    5   29 1
    13    5   30 1
    14    6    7 1
    15    6   31 1
    16    7   14 ar
    17    7    8 ar
    18    8    9 ar
    19    9   10 ar
    20    9   32 1
    21   10   11 1
    22   10   13 ar
    23   11   12 3
    24   13   14 ar
    25   13   33 1
    26   14   15 1
    27   16   17 1
    28   16   34 1
    29   16   35 1
    30   17   23 ar
    31   17   18 ar
    32   18   19 ar
    33   18   36 1
    34   19   20 ar
    35   19   37 1
    36   20   21 1
    37   20   22 ar
    38   22   23 ar
    39   22   38 1
    40   23   39 1
##########                 Name:     ZINC000247477468
##########          Protonation:                 none
##########               SMILES:   C[C@H](C(=O)C1=C(N)N(C)C(=O)N(C)C1=O)[NH+]1C[C@@H]2CCC[C@H]2C1
##########            Long Name:   NO_LONG_NAME
##########          FlexRecCode: 1
##########               Number:                 8075
##########   Ligand Source File: /nfs/db/export/3D/DB/ADRO/DBADRO.xgf.db2.gz
##########                 Rank:                    1
##########               Setnum:                    9
##########             Matchnum:                    1
##########                Cloud:                    1
##########        Electrostatic:           -44.920536
##########                 Gist:             0.000000
##########        Van der Waals:           -30.243809
##########  Ligand Polar Desolv:            11.790712
########## Ligand Apolar Desolv:            -4.209464
##########      Internal Energy:             0.000000
##########      Receptor Energy:             0.000000
########## Receptor Desolvation:             0.000000
########## Receptor Hydrophobic:             0.000000
##########         Total Energy:           -67.583099
##########        Ligand Charge:             1.000000
##########            Arbitrary:    +999.9990
##########        Ligand Energy:             0.000000

@<TRIPOS>MOLECULE
 ZINC000247477468      none
   48    50     0     0     0



@<TRIPOS>ATOM
      1 C1        -16.9459    16.8055   -18.6202 C.3        1  LIG1  -0.1600
      2 C2        -18.1846    17.2381   -17.8334 C.3        1  LIG1  -0.0100
      3 H1        -18.3463    18.3075   -17.9693 H          1  LIG1   0.1800
      4 C3        -17.9784    16.9434   -16.3699 C.2        1  LIG1   0.4300
      5 O1        -18.9310    16.6830   -15.6627 O.2        1  LIG1  -0.5000
      6 C4        -16.6785    16.9698   -15.8211 C.2        1  LIG1  -0.4600
      7 C5        -16.1198    15.8262   -15.2242 C.2        1  LIG1   0.5800
      8 N1        -16.8244    14.6641   -15.1629 N.pl3      1  LIG1  -0.7800
      9 N2        -14.8579    15.9008   -14.7073 N.am       1  LIG1  -0.5400
     10 C6        -14.2664    14.7144   -14.0836 C.3        1  LIG1   0.0600
     11 C7        -14.1485    17.0390   -14.7596 C.2        1  LIG1   0.7100
     12 O2        -13.0295    17.0537   -14.2852 O.2        1  LIG1  -0.5000
     13 N3        -14.6295    18.1621   -15.3172 N.am       1  LIG1  -0.5500
     14 C8        -13.8004    19.3697   -15.3411 C.3        1  LIG1   0.0700
     15 C9        -15.8638    18.1910   -15.8606 C.2        1  LIG1   0.5900
     16 O3        -16.2965    19.2105   -16.3657 O.2        1  LIG1  -0.5100
     17 N4        -19.3572    16.4997   -18.3211 N.4        1  LIG1  -0.3900
     18 H2        -19.2139    15.5085   -18.1979 H          1  LIG1   0.4300
     19 C10       -19.5834    16.8050   -19.7735 C.3        1  LIG1   0.0100
     20 C11       -21.0967    16.7576   -19.8778 C.3        1  LIG1  -0.1300
     21 H3        -21.4693    15.7379   -19.7802 H          1  LIG1   0.1100
     22 C12       -21.8766    17.5326   -20.9217 C.3        1  LIG1  -0.1000
     23 C13       -23.2392    17.7685   -20.1931 C.3        1  LIG1  -0.1200
     24 C14       -22.9175    17.7228   -18.6677 C.3        1  LIG1  -0.1000
     25 C15       -21.4217    17.6301   -18.6007 C.3        1  LIG1  -0.1300
     26 H4        -20.9988    18.6198   -18.7735 H          1  LIG1   0.0900
     27 C16       -20.5798    16.9339   -17.5708 C.3        1  LIG1   0.0200
     28 H5        -16.7842    15.7361   -18.4842 H          1  LIG1   0.0800
     29 H6        -17.0950    17.0187   -19.6787 H          1  LIG1   0.0900
     30 H7        -16.0758    17.3533   -18.2583 H          1  LIG1   0.1100
     31 H8        -17.7201    14.6199   -15.5329 H          1  LIG1   0.4400
     32 H9        -16.4313    13.8797   -14.7494 H          1  LIG1   0.4200
     33 H10       -13.2636    14.9522   -13.7286 H          1  LIG1   0.1000
     34 H11       -14.8844    14.3997   -13.2427 H          1  LIG1   0.1200
     35 H12       -14.2110    13.9086   -14.8156 H          1  LIG1   0.0900
     36 H13       -14.3478    20.1767   -15.8282 H          1  LIG1   0.1100
     37 H14       -13.5544    19.6618   -14.3202 H          1  LIG1   0.0900
     38 H15       -12.8820    19.1690   -15.8928 H          1  LIG1   0.0900
     39 H16       -19.2079    17.7969   -20.0249 H          1  LIG1   0.1400
     40 H17       -19.1267    16.0439   -20.4061 H          1  LIG1   0.1400
     41 H18       -21.3876    18.4796   -21.1505 H          1  LIG1   0.0800
     42 H19       -22.0153    16.9388   -21.8252 H          1  LIG1   0.0800
     43 H20       -23.6462    18.7430   -20.4628 H          1  LIG1   0.0800
     44 H21       -23.9459    16.9802   -20.4523 H          1  LIG1   0.0800
     45 H22       -23.2738    18.6274   -18.1748 H          1  LIG1   0.0800
     46 H23       -23.3596    16.8378   -18.2103 H          1  LIG1   0.0800
     47 H24       -21.1108    16.0736   -17.1633 H          1  LIG1   0.1300
     48 H25       -20.3044    17.6247   -16.7739 H          1  LIG1   0.1200
@<TRIPOS>BOND
     1    1    2 1
     2    1   28 1
     3    1   29 1
     4    1   30 1
     5    2    3 1
     6    2    4 1
     7    2   17 1
     8    4    5 2
     9    4    6 1
    10    6   15 1
    11    6    7 2
    12    7    8 1
    13    7    9 1
    14    8   31 1
    15    8   32 1
    16    9   10 1
    17    9   11 am
    18   10   33 1
    19   10   34 1
    20   10   35 1
    21   11   12 2
    22   11   13 am
    23   13   14 1
    24   13   15 am
    25   14   36 1
    26   14   37 1
    27   14   38 1
    28   15   16 2
    29   17   18 1
    30   17   27 1
    31   17   19 1
    32   19   20 1
    33   19   39 1
    34   19   40 1
    35   20   21 1
    36   20   25 1
    37   20   22 1
    38   22   23 1
    39   22   41 1
    40   22   42 1
    41   23   24 1
    42   23   43 1
    43   23   44 1
    44   24   25 1
    45   24   45 1
    46   24   46 1
    47   25   26 1
    48   25   27 1
    49   27   47 1
    50   27   48 1
##########                 Name:     ZINC000135488461
##########          Protonation:                 none
##########               SMILES:   CSC[C@H]1CCC[N@H+]1CC(=O)NC1=CC=C(C(C)=O)C=C1
##########            Long Name:   NO_LONG_NAME
##########          FlexRecCode: 1
##########               Number:                 6324
##########   Ligand Source File: /nfs/db/export/3D/DF/ADMO/DFADMO.xfn.db2.gz
##########                 Rank:                    1
##########               Setnum:                   47
##########             Matchnum:                    1
##########                Cloud:                    1
##########        Electrostatic:           -49.927071
##########                 Gist:             0.000000
##########        Van der Waals:           -30.308750
##########  Ligand Polar Desolv:            18.839510
########## Ligand Apolar Desolv:            -4.612058
##########      Internal Energy:             0.000000
##########      Receptor Energy:             0.000000
########## Receptor Desolvation:             0.000000
########## Receptor Hydrophobic:             0.000000
##########         Total Energy:           -66.008369
##########        Ligand Charge:             1.000000
##########            Arbitrary:    +999.9990
##########        Ligand Energy:             0.000000

@<TRIPOS>MOLECULE
 ZINC000135488461      none
   44    45     0     0     0



@<TRIPOS>ATOM
      1 C1        -23.3026    16.0647   -19.2323 C.3        1  LIG1  -0.1300
      2 S1        -22.4737    17.6760   -19.3180 S.3        1  LIG1  -0.2000
      3 C2        -20.9588    17.4071   -18.3569 C.3        1  LIG1  -0.1400
      4 C3        -19.9262    16.6842   -19.2241 C.3        1  LIG1   0.0400
      5 H1        -20.3226    15.7215   -19.5475 H          1  LIG1   0.1500
      6 C4        -19.5765    17.5478   -20.4541 C.3        1  LIG1  -0.1300
      7 C5        -18.0518    17.3153   -20.6223 C.3        1  LIG1  -0.1400
      8 C6        -17.5875    17.2062   -19.1485 C.3        1  LIG1  -0.0100
      9 N1        -18.6819    16.4828   -18.4593 N.4        1  LIG1  -0.3700
     10 H2        -18.4627    15.4990   -18.4140 H          1  LIG1   0.4400
     11 C7        -18.8484    17.0165   -17.1008 C.3        1  LIG1  -0.0400
     12 C8        -17.5758    16.8100   -16.3204 C.2        1  LIG1   0.5000
     13 O1        -16.9800    17.7647   -15.8685 O.2        1  LIG1  -0.5000
     14 N2        -17.0998    15.5644   -16.1248 N.am       1  LIG1  -0.6500
     15 C9        -15.9234    15.3735   -15.4034 C.ar       1  LIG1   0.1500
     16 C10       -15.7378    14.2011   -14.6760 C.ar       1  LIG1  -0.1400
     17 C11       -14.5818    14.0089   -13.9647 C.ar       1  LIG1  -0.0400
     18 C12       -13.5864    14.9940   -13.9710 C.ar       1  LIG1  -0.1700
     19 C13       -12.3461    14.7926   -13.2110 C.2        1  LIG1   0.3900
     20 C14       -12.3590    13.9608   -11.9545 C.3        1  LIG1  -0.2000
     21 O2        -11.3112    15.2958   -13.5947 O.2        1  LIG1  -0.4500
     22 C15       -13.7772    16.1717   -14.7045 C.ar       1  LIG1  -0.0500
     23 C16       -14.9343    16.3532   -15.4168 C.ar       1  LIG1  -0.1300
     24 H3        -24.2409    16.1091   -19.7851 H          1  LIG1   0.1200
     25 H4        -22.6591    15.3014   -19.6695 H          1  LIG1   0.0900
     26 H5        -23.5059    15.8157   -18.1909 H          1  LIG1   0.0900
     27 H6        -20.5560    18.3682   -18.0374 H          1  LIG1   0.1100
     28 H7        -21.1872    16.7996   -17.4812 H          1  LIG1   0.1100
     29 H8        -20.1185    17.2023   -21.3343 H          1  LIG1   0.1200
     30 H9        -19.7868    18.5994   -20.2590 H          1  LIG1   0.1100
     31 H10       -17.8554    16.3896   -21.1632 H          1  LIG1   0.1000
     32 H11       -17.5800    18.1634   -21.1187 H          1  LIG1   0.1200
     33 H12       -16.6595    16.6381   -19.0841 H          1  LIG1   0.1500
     34 H13       -17.4566    18.1988   -18.7174 H          1  LIG1   0.1300
     35 H14       -19.0732    18.0817   -17.1540 H          1  LIG1   0.1600
     36 H15       -19.6676    16.4965   -16.6042 H          1  LIG1   0.1600
     37 H16       -17.5764    14.8007   -16.4863 H          1  LIG1   0.4200
     38 H17       -16.5061    13.4419   -14.6718 H          1  LIG1   0.1400
     39 H18       -14.4391    13.0993   -13.4001 H          1  LIG1   0.1500
     40 H19       -11.3548    13.9250   -11.5321 H          1  LIG1   0.1000
     41 H20       -13.0419    14.4061   -11.2308 H          1  LIG1   0.0900
     42 H21       -12.6898    12.9495   -12.1916 H          1  LIG1   0.0900
     43 H22       -13.0124    16.9342   -14.7119 H          1  LIG1   0.1400
     44 H23       -15.0824    17.2610   -15.9828 H          1  LIG1   0.1400
@<TRIPOS>BOND
     1    1    2 1
     2    1   24 1
     3    1   25 1
     4    1   26 1
     5    2    3 1
     6    3    4 1
     7    3   27 1
     8    3   28 1
     9    4    5 1
    10    4    9 1
    11    4    6 1
    12    6    7 1
    13    6   29 1
    14    6   30 1
    15    7    8 1
    16    7   31 1
    17    7   32 1
    18    8    9 1
    19    8   33 1
    20    8   34 1
    21    9   10 1
    22    9   11 1
    23   11   12 1
    24   11   35 1
    25   11   36 1
    26   12   13 2
    27   12   14 am
    28   14   15 1
    29   14   37 1
    30   15   23 ar
    31   15   16 ar
    32   16   17 ar
    33   16   38 1
    34   17   18 ar
    35   17   39 1
    36   18   19 1
    37   18   22 ar
    38   19   20 1
    39   19   21 2
    40   20   40 1
    41   20   41 1
    42   20   42 1
    43   22   23 ar
    44   22   43 1
    45   23   44 1
##########                 Name:     ZINC000517755157
##########          Protonation:                 none
##########               SMILES:   C[C@@H](C(=O)NC(C)(C)C)[N@H+](C)CC1=CC2=CC=CC=C2N(C)C1=O
##########            Long Name:   NO_LONG_NAME
##########          FlexRecCode: 1
##########               Number:                  113
##########   Ligand Source File: /nfs/db/export/3D/EE/ADRO/EEADRO.xajt.db2.gz
##########                 Rank:                    1
##########               Setnum:                   61
##########             Matchnum:                    1
##########                Cloud:                    1
##########        Electrostatic:           -43.140076
##########                 Gist:             0.000000
##########        Van der Waals:           -36.967793
##########  Ligand Polar Desolv:            15.785528
########## Ligand Apolar Desolv:            -5.330328
##########      Internal Energy:             0.000000
##########      Receptor Energy:             0.000000
########## Receptor Desolvation:             0.000000
########## Receptor Hydrophobic:             0.000000
##########         Total Energy:           -69.652664
##########        Ligand Charge:             1.000000
##########            Arbitrary:    +999.9990
##########        Ligand Energy:             0.000000

@<TRIPOS>MOLECULE
 ZINC000517755157      none
   52    53     0     0     0



@<TRIPOS>ATOM
      1 C1        -17.4988    15.7307   -19.5627 C.3        1  LIG1  -0.1800
      2 C2        -17.7261    16.8677   -18.5644 C.3        1  LIG1   0.0000
      3 H1        -17.1023    17.7194   -18.8356 H          1  LIG1   0.1600
      4 C3        -19.1760    17.2779   -18.5918 C.2        1  LIG1   0.5100
      5 O1        -19.4867    18.4235   -18.3432 O.2        1  LIG1  -0.5200
      6 N1        -20.1272    16.3717   -18.8926 N.am       1  LIG1  -0.7000
      7 C4        -21.5367    16.7705   -18.9192 C.3        1  LIG1   0.1700
      8 C5        -21.7349    17.8739   -19.9603 C.3        1  LIG1  -0.1700
      9 C6        -22.4015    15.5626   -19.2851 C.3        1  LIG1  -0.1600
     10 C7        -21.9453    17.2913   -17.5399 C.3        1  LIG1  -0.1700
     11 N2        -17.3717    16.4114   -17.2138 N.4        1  LIG1  -0.3700
     12 H2        -17.6881    15.4619   -17.0856 H          1  LIG1   0.4300
     13 C8        -18.0148    17.2803   -16.2190 C.3        1  LIG1  -0.0400
     14 C9        -15.9137    16.4689   -17.0444 C.3        1  LIG1   0.0600
     15 C10       -15.5050    15.5742   -15.9025 C.2        1  LIG1  -0.2800
     16 C11       -16.0267    14.3268   -15.8019 C.2        1  LIG1   0.0600
     17 C12       -15.6087    13.4824   -14.6811 C.ar       1  LIG1  -0.1600
     18 C13       -16.1112    12.1867   -14.5248 C.ar       1  LIG1  -0.0400
     19 C14       -15.7004    11.4238   -13.4683 C.ar       1  LIG1  -0.1500
     20 C15       -14.7885    11.9232   -12.5488 C.ar       1  LIG1  -0.0400
     21 C16       -14.2805    13.1976   -12.6828 C.ar       1  LIG1  -0.1700
     22 C17       -14.6837    13.9925   -13.7504 C.ar       1  LIG1   0.2000
     23 N3        -14.1913    15.2704   -13.9091 N.am       1  LIG1  -0.5100
     24 C18       -13.2291    15.7990   -12.9391 C.3        1  LIG1   0.0600
     25 C19       -14.5764    16.0359   -14.9453 C.2        1  LIG1   0.5400
     26 O2        -14.1205    17.1611   -15.0542 O.2        1  LIG1  -0.5400
     27 H3        -18.1226    14.8790   -19.2915 H          1  LIG1   0.0900
     28 H4        -17.7619    16.0691   -20.5649 H          1  LIG1   0.1100
     29 H5        -16.4502    15.4339   -19.5428 H          1  LIG1   0.1000
     30 H6        -19.8785    15.4554   -19.0915 H          1  LIG1   0.4100
     31 H7        -22.7834    18.1707   -19.9801 H          1  LIG1   0.0600
     32 H8        -21.1186    18.7343   -19.6997 H          1  LIG1   0.0800
     33 H9        -21.4436    17.5027   -20.9430 H          1  LIG1   0.0800
     34 H10       -23.4501    15.8592   -19.3049 H          1  LIG1   0.0700
     35 H11       -22.1103    15.1916   -20.2677 H          1  LIG1   0.0800
     36 H12       -22.2601    14.7765   -18.5433 H          1  LIG1   0.0700
     37 H13       -22.9939    17.5881   -17.5596 H          1  LIG1   0.0800
     38 H14       -21.8040    16.5051   -16.7982 H          1  LIG1   0.0700
     39 H15       -21.3291    18.1518   -17.2791 H          1  LIG1   0.0600
     40 H16       -17.7519    16.9420   -15.2168 H          1  LIG1   0.1200
     41 H17       -17.6730    18.3062   -16.3574 H          1  LIG1   0.1200
     42 H18       -19.0967    17.2379   -16.3447 H          1  LIG1   0.1300
     43 H19       -15.4280    16.1333   -17.9606 H          1  LIG1   0.1400
     44 H20       -15.6130    17.4941   -16.8282 H          1  LIG1   0.1500
     45 H21       -16.7350    13.9640   -16.5320 H          1  LIG1   0.1600
     46 H22       -16.8213    11.7909   -15.2358 H          1  LIG1   0.1400
     47 H23       -16.0889    10.4233   -13.3476 H          1  LIG1   0.1400
     48 H24       -14.4741    11.3070   -11.7194 H          1  LIG1   0.1400
     49 H25       -13.5714    13.5770   -11.9619 H          1  LIG1   0.1400
     50 H26       -12.9510    16.8148   -13.2199 H          1  LIG1   0.0800
     51 H27       -13.6806    15.8070   -11.9471 H          1  LIG1   0.1000
     52 H28       -12.3400    15.1686   -12.9287 H          1  LIG1   0.0900
@<TRIPOS>BOND
     1    1    2 1
     2    1   27 1
     3    1   28 1
     4    1   29 1
     5    2    3 1
     6    2    4 1
     7    2   11 1
     8    4    5 2
     9    4    6 am
    10    6    7 1
    11    6   30 1
    12    7    8 1
    13    7    9 1
    14    7   10 1
    15    8   31 1
    16    8   32 1
    17    8   33 1
    18    9   34 1
    19    9   35 1
    20    9   36 1
    21   10   37 1
    22   10   38 1
    23   10   39 1
    24   11   12 1
    25   11   13 1
    26   11   14 1
    27   13   40 1
    28   13   41 1
    29   13   42 1
    30   14   15 1
    31   14   43 1
    32   14   44 1
    33   15   25 1
    34   15   16 2
    35   16   17 1
    36   16   45 1
    37   17   22 ar
    38   17   18 ar
    39   18   19 ar
    40   18   46 1
    41   19   20 ar
    42   19   47 1
    43   20   21 ar
    44   20   48 1
    45   21   22 ar
    46   21   49 1
    47   22   23 1
    48   23   24 1
    49   23   25 am
    50   24   50 1
    51   24   51 1
    52   24   52 1
    53   25   26 2
##########                 Name:     ZINC000480496068
##########          Protonation:                 none
##########               SMILES:   COC(=O)C1=CC=CC=C1CC[N@H+](C)CC(=O)NC1=CC=CC(Cl)=C1
##########            Long Name:   NO_LONG_NAME
##########          FlexRecCode: 1
##########               Number:                18049
##########   Ligand Source File: /nfs/db/export/3D/FG/ADMO/FGADMO.xawj.db2.gz
##########                 Rank:                    1
##########               Setnum:                   64
##########             Matchnum:                    1
##########                Cloud:                    1
##########        Electrostatic:           -40.971321
##########                 Gist:             0.000000
##########        Van der Waals:           -38.424274
##########  Ligand Polar Desolv:            14.581057
########## Ligand Apolar Desolv:            -6.034730
##########      Internal Energy:             0.000000
##########      Receptor Energy:             0.000000
########## Receptor Desolvation:             0.000000
########## Receptor Hydrophobic:             0.000000
##########         Total Energy:           -70.849274
##########        Ligand Charge:             1.000000
##########            Arbitrary:    +999.9990
##########        Ligand Energy:             0.000000

@<TRIPOS>MOLECULE
 ZINC000480496068      none
   47    48     0     0     0



@<TRIPOS>ATOM
      1 C1        -23.3402    15.9973   -19.9703 C.3        1  LIG1   0.0400
      2 O1        -22.4455    16.6873   -20.8822 O.3        1  LIG1  -0.3500
      3 C2        -21.2449    17.0586   -20.3971 C.2        1  LIG1   0.5200
      4 O2        -20.9535    16.8127   -19.2439 O.2        1  LIG1  -0.5300
      5 C3        -20.2830    17.7650   -21.2675 C.ar       1  LIG1  -0.1300
      6 C4        -20.7424    18.5902   -22.2957 C.ar       1  LIG1  -0.0500
      7 C5        -19.8383    19.2470   -23.1050 C.ar       1  LIG1  -0.1200
      8 C6        -18.4794    19.0889   -22.8999 C.ar       1  LIG1  -0.0700
      9 C7        -18.0171    18.2725   -21.8825 C.ar       1  LIG1  -0.1200
     10 C8        -18.9098    17.6150   -21.0622 C.ar       1  LIG1  -0.0400
     11 C9        -18.4045    16.7267   -19.9545 C.3        1  LIG1  -0.1100
     12 C10       -18.2464    17.5486   -18.6737 C.3        1  LIG1   0.0000
     13 N1        -17.7539    16.6828   -17.5941 N.4        1  LIG1  -0.3700
     14 H1        -18.2106    15.7847   -17.6482 H          1  LIG1   0.4400
     15 C11       -18.0476    17.3041   -16.2957 C.3        1  LIG1  -0.0600
     16 C12       -16.3026    16.5033   -17.7338 C.3        1  LIG1  -0.0300
     17 C13       -15.7972    15.6151   -16.6263 C.2        1  LIG1   0.5000
     18 O3        -14.6671    15.7517   -16.2074 O.2        1  LIG1  -0.5100
     19 N2        -16.6008    14.6691   -16.1014 N.am       1  LIG1  -0.6400
     20 C14       -16.1315    13.8444   -15.0730 C.ar       1  LIG1   0.1300
     21 C15       -16.6134    12.5483   -14.9458 C.ar       1  LIG1  -0.1300
     22 C16       -16.1482    11.7360   -13.9301 C.ar       1  LIG1  -0.0800
     23 C17       -15.2038    12.2118   -13.0397 C.ar       1  LIG1  -0.1100
     24 C18       -14.7213    13.5033   -13.1629 C.ar       1  LIG1  -0.0200
     25 Cl1       -13.5354    14.0968   -12.0427 Cl         1  LIG1  -0.0500
     26 C19       -15.1786    14.3186   -14.1809 C.ar       1  LIG1  -0.1100
     27 H2        -24.2694    15.7555   -20.4863 H          1  LIG1   0.0700
     28 H3        -22.8675    15.0783   -19.6234 H          1  LIG1   0.1100
     29 H4        -23.5553    16.6399   -19.1165 H          1  LIG1   0.0700
     30 H5        -21.8031    18.7139   -22.4574 H          1  LIG1   0.1500
     31 H6        -20.1926    19.8856   -23.9007 H          1  LIG1   0.1400
     32 H7        -17.7761    19.6048   -23.5367 H          1  LIG1   0.1400
     33 H8        -16.9549    18.1536   -21.7278 H          1  LIG1   0.1400
     34 H9        -19.1165    15.9196   -19.7827 H          1  LIG1   0.0900
     35 H10       -17.4396    16.3060   -20.2377 H          1  LIG1   0.1200
     36 H11       -17.5342    18.3558   -18.8455 H          1  LIG1   0.1300
     37 H12       -19.2112    17.9695   -18.3906 H          1  LIG1   0.1300
     38 H13       -17.6821    16.6616   -15.4946 H          1  LIG1   0.1300
     39 H14       -17.5540    18.2743   -16.2372 H          1  LIG1   0.1400
     40 H15       -19.1244    17.4373   -16.1920 H          1  LIG1   0.1200
     41 H16       -16.0846    16.0424   -18.6974 H          1  LIG1   0.1600
     42 H17       -15.8090    17.4734   -17.6753 H          1  LIG1   0.1600
     43 H18       -17.5045    14.5598   -16.4364 H          1  LIG1   0.4200
     44 H19       -17.3517    12.1758   -15.6405 H          1  LIG1   0.1400
     45 H20       -16.5230    10.7280   -13.8312 H          1  LIG1   0.1500
     46 H21       -14.8420    11.5747   -12.2462 H          1  LIG1   0.1400
     47 H22       -14.8020    15.3262   -14.2771 H          1  LIG1   0.1400
@<TRIPOS>BOND
     1    1    2 1
     2    1   27 1
     3    1   28 1
     4    1   29 1
     5    2    3 1
     6    3    4 2
     7    3    5 1
     8    5   10 ar
     9    5    6 ar
    10    6    7 ar
    11    6   30 1
    12    7    8 ar
    13    7   31 1
    14    8    9 ar
    15    8   32 1
    16    9   10 ar
    17    9   33 1
    18   10   11 1
    19   11   12 1
    20   11   34 1
    21   11   35 1
    22   12   13 1
    23   12   36 1
    24   12   37 1
    25   13   14 1
    26   13   15 1
    27   13   16 1
    28   15   38 1
    29   15   39 1
    30   15   40 1
    31   16   17 1
    32   16   41 1
    33   16   42 1
    34   17   18 2
    35   17   19 am
    36   19   20 1
    37   19   43 1
    38   20   26 ar
    39   20   21 ar
    40   21   22 ar
    41   21   44 1
    42   22   23 ar
    43   22   45 1
    44   23   24 ar
    45   23   46 1
    46   24   25 1
    47   24   26 ar
    48   26   47 1
##########                 Name:     ZINC000562713783
##########          Protonation:                 none
##########               SMILES:   O=S(=O)(N[C@@H]1CC[N@H+](C2CCCC2)C1)C1=CC2=CC(F)=CC=C2O1
##########            Long Name:   NO_LONG_NAME
##########          FlexRecCode: 1
##########               Number:                 1787
##########   Ligand Source File: /nfs/db/export/3D/FF/ADMO/FFADMO.xapp.db2.gz
##########                 Rank:                    1
##########               Setnum:                   77
##########             Matchnum:                    1
##########                Cloud:                    1
##########        Electrostatic:           -44.911190
##########                 Gist:             0.000000
##########        Van der Waals:           -33.528732
##########  Ligand Polar Desolv:            16.586483
########## Ligand Apolar Desolv:            -4.187062
##########      Internal Energy:             0.000000
##########      Receptor Energy:             0.000000
########## Receptor Desolvation:             0.000000
########## Receptor Hydrophobic:             0.000000
##########         Total Energy:           -66.040504
##########        Ligand Charge:             1.000000
##########            Arbitrary:    +999.9990
##########        Ligand Energy:             0.000000

@<TRIPOS>MOLECULE
 ZINC000562713783      none
   46    49     0     0     0



@<TRIPOS>ATOM
      1 O1        -13.9629    19.0389   -16.0259 O.2        1  LIG1  -0.9100
      2 S1        -15.0647    18.1419   -16.0538 S.o2       1  LIG1   2.7200
      3 O2        -16.3679    18.4977   -15.6130 O.2        1  LIG1  -0.9200
      4 N1        -15.2225    17.6438   -17.6252 N.pl3      1  LIG1  -1.1000
      5 C1        -16.1876    16.5963   -17.9682 C.3        1  LIG1   0.1300
      6 H1        -15.9619    15.6714   -17.4375 H          1  LIG1   0.1400
      7 C2        -16.2312    16.3611   -19.5011 C.3        1  LIG1  -0.1700
      8 C3        -17.6558    15.8132   -19.7284 C.3        1  LIG1  -0.0100
      9 N2        -18.4796    16.2515   -18.5868 N.4        1  LIG1  -0.3900
     10 H2        -18.8312    15.4452   -18.0924 H          1  LIG1   0.4300
     11 C4        -19.6033    17.0643   -19.0714 C.3        1  LIG1   0.0200
     12 C5        -20.5597    16.2063   -19.9362 C.3        1  LIG1  -0.1400
     13 C6        -21.8979    16.9801   -19.8361 C.3        1  LIG1  -0.1200
     14 C7        -21.9376    17.4800   -18.3772 C.3        1  LIG1  -0.1300
     15 C8        -20.4788    17.5335   -17.8910 C.3        1  LIG1  -0.1400
     16 C9        -17.6369    17.0614   -17.6807 C.3        1  LIG1  -0.0100
     17 C10       -14.5854    16.7356   -15.1065 C.2        1  LIG1  -0.5500
     18 C11       -15.3760    15.6886   -14.8341 C.2        1  LIG1  -0.0500
     19 C12       -14.5691    14.7655   -14.0271 C.ar       1  LIG1  -0.1300
     20 C13       -14.8056    13.5237   -13.4395 C.ar       1  LIG1  -0.0900
     21 C14       -13.8009    12.9065   -12.7238 C.ar       1  LIG1   0.0900
     22 F1        -14.0231    11.7027   -12.1519 F          1  LIG1  -0.1300
     23 C15       -12.5608    13.5181   -12.5894 C.ar       1  LIG1  -0.1000
     24 C16       -12.3163    14.7458   -13.1665 C.ar       1  LIG1  -0.0800
     25 C17       -13.3148    15.3838   -13.8909 C.ar       1  LIG1   0.0700
     26 O3        -13.3718    16.5552   -14.5570 O.3        1  LIG1  -0.1400
     27 H3        -14.6759    18.0455   -18.3185 H          1  LIG1   0.4300
     28 H4        -16.0883    17.2983   -20.0390 H          1  LIG1   0.1100
     29 H5        -15.4834    15.6263   -19.7997 H          1  LIG1   0.1200
     30 H6        -18.0638    16.2145   -20.6560 H          1  LIG1   0.1400
     31 H7        -17.6317    14.7243   -19.7719 H          1  LIG1   0.1400
     32 H8        -19.2372    17.9201   -19.6386 H          1  LIG1   0.1400
     33 H9        -20.2139    16.1645   -20.9690 H          1  LIG1   0.0900
     34 H10       -20.6614    15.2037   -19.5208 H          1  LIG1   0.0900
     35 H11       -21.9042    17.8221   -20.5283 H          1  LIG1   0.0800
     36 H12       -22.7386    16.3155   -20.0348 H          1  LIG1   0.0900
     37 H13       -22.3820    18.4744   -18.3353 H          1  LIG1   0.0800
     38 H14       -22.5115    16.7878   -17.7610 H          1  LIG1   0.0800
     39 H15       -20.3445    16.8674   -17.0387 H          1  LIG1   0.0900
     40 H16       -20.2150    18.5540   -17.6131 H          1  LIG1   0.1000
     41 H17       -17.9003    16.8656   -16.6413 H          1  LIG1   0.1500
     42 H18       -17.7464    18.1220   -17.9076 H          1  LIG1   0.1400
     43 H19       -16.4010    15.5516   -15.1454 H          1  LIG1   0.1800
     44 H20       -15.7698    13.0483   -13.5434 H          1  LIG1   0.1500
     45 H21       -11.7807    13.0270   -12.0268 H          1  LIG1   0.1600
     46 H22       -11.3484    15.2118   -13.0550 H          1  LIG1   0.1500
@<TRIPOS>BOND
     1    1    2 2
     2    2    3 2
     3    2    4 1
     4    2   17 1
     5    4    5 1
     6    4   27 1
     7    5    6 1
     8    5   16 1
     9    5    7 1
    10    7    8 1
    11    7   28 1
    12    7   29 1
    13    8    9 1
    14    8   30 1
    15    8   31 1
    16    9   10 1
    17    9   11 1
    18    9   16 1
    19   11   15 1
    20   11   12 1
    21   11   32 1
    22   12   13 1
    23   12   33 1
    24   12   34 1
    25   13   14 1
    26   13   35 1
    27   13   36 1
    28   14   15 1
    29   14   37 1
    30   14   38 1
    31   15   39 1
    32   15   40 1
    33   16   41 1
    34   16   42 1
    35   17   26 1
    36   17   18 2
    37   18   19 1
    38   18   43 1
    39   19   25 ar
    40   19   20 ar
    41   20   21 ar
    42   20   44 1
    43   21   22 1
    44   21   23 ar
    45   23   24 ar
    46   23   45 1
    47   24   25 ar
    48   24   46 1
    49   25   26 1
##########                 Name:     ZINC000425345543
##########          Protonation:                 none
##########               SMILES:   COC1=CC(OC)=CC(NC(=O)C[NH2+][C@@H]2CC[C@@H](C)[C@H](C)C2)=C1
##########            Long Name:   NO_LONG_NAME
##########          FlexRecCode: 1
##########               Number:                12191
##########   Ligand Source File: /nfs/db/export/3D/DG/ADRO/DGADRO.xaow.db2.gz
##########                 Rank:                    1
##########               Setnum:                   86
##########             Matchnum:                    1
##########                Cloud:                    1
##########        Electrostatic:           -48.965946
##########                 Gist:             0.000000
##########        Van der Waals:           -31.212749
##########  Ligand Polar Desolv:            16.532244
########## Ligand Apolar Desolv:            -3.199330
##########      Internal Energy:             0.000000
##########      Receptor Energy:             0.000000
########## Receptor Desolvation:             0.000000
########## Receptor Hydrophobic:             0.000000
##########         Total Energy:           -66.845779
##########        Ligand Charge:             1.000000
##########            Arbitrary:    +999.9990
##########        Ligand Energy:             0.000000

@<TRIPOS>MOLECULE
 ZINC000425345543      none
   52    53     0     0     0



@<TRIPOS>ATOM
      1 C1        -12.9348    14.8058   -11.6307 C.3        1  LIG1   0.0200
      2 O1        -13.6029    15.3307   -12.7797 O.3        1  LIG1  -0.3100
      3 C2        -14.3976    14.4757   -13.4755 C.ar       1  LIG1   0.1900
      4 C3        -14.5351    13.1607   -13.0566 C.ar       1  LIG1  -0.3000
      5 C4        -15.3460    12.2874   -13.7660 C.ar       1  LIG1   0.1900
      6 O2        -15.4798    10.9990   -13.3550 O.3        1  LIG1  -0.3100
      7 C5        -14.7567    10.6129   -12.1847 C.3        1  LIG1   0.0200
      8 C6        -16.0203    12.7286   -14.8943 C.ar       1  LIG1  -0.1900
      9 C7        -15.8835    14.0447   -15.3139 C.ar       1  LIG1   0.2000
     10 N1        -16.5637    14.4907   -16.4522 N.am       1  LIG1  -0.6400
     11 C8        -16.0373    15.4731   -17.2102 C.2        1  LIG1   0.5000
     12 O3        -14.9740    15.9705   -16.9053 O.2        1  LIG1  -0.5000
     13 C9        -16.7700    15.9534   -18.4363 C.3        1  LIG1  -0.0300
     14 N2        -18.0879    16.4729   -18.0472 N.4        1  LIG1  -0.4900
     15 H1        -18.6203    15.7401   -17.6027 H          1  LIG1   0.4400
     16 H2        -17.9699    17.2408   -17.4034 H          1  LIG1   0.4300
     17 C10       -18.8021    16.9413   -19.2424 C.3        1  LIG1   0.0300
     18 H3        -18.6257    16.2489   -20.0656 H          1  LIG1   0.1400
     19 C11       -18.2938    18.3319   -19.6278 C.3        1  LIG1  -0.1400
     20 C12       -19.0377    18.8198   -20.8728 C.3        1  LIG1  -0.1100
     21 C13       -20.5372    18.8886   -20.5766 C.3        1  LIG1  -0.0900
     22 H4        -20.7135    19.5810   -19.7533 H          1  LIG1   0.0800
     23 C14       -21.2810    19.3765   -21.8214 C.3        1  LIG1  -0.1600
     24 C15       -21.0453    17.4979   -20.1911 C.3        1  LIG1  -0.0800
     25 H5        -20.8690    16.8056   -21.0143 H          1  LIG1   0.0800
     26 C16       -22.5448    17.5668   -19.8950 C.3        1  LIG1  -0.1600
     27 C17       -20.3014    17.0101   -18.9462 C.3        1  LIG1  -0.1400
     28 C18       -15.0752    14.9195   -14.6007 C.ar       1  LIG1  -0.2100
     29 H6        -12.3352    15.5903   -11.1690 H          1  LIG1   0.0600
     30 H7        -13.6729    14.4440   -10.9150 H          1  LIG1   0.0600
     31 H8        -12.2867    13.9827   -11.9317 H          1  LIG1   0.1100
     32 H9        -14.0104    12.8165   -12.1776 H          1  LIG1   0.1400
     33 H10       -14.9514     9.5627   -11.9672 H          1  LIG1   0.1100
     34 H11       -13.6893    10.7572   -12.3529 H          1  LIG1   0.0600
     35 H12       -15.0773    11.2242   -11.3411 H          1  LIG1   0.0600
     36 H13       -16.6516    12.0484   -15.4466 H          1  LIG1   0.1400
     37 H14       -17.4142    14.0929   -16.6961 H          1  LIG1   0.4200
     38 H15       -16.1948    16.7449   -18.9164 H          1  LIG1   0.1700
     39 H16       -16.8974    15.1239   -19.1318 H          1  LIG1   0.1700
     40 H17       -18.4702    19.0242   -18.8047 H          1  LIG1   0.0900
     41 H18       -17.2256    18.2829   -19.8388 H          1  LIG1   0.0900
     42 H19       -18.6758    19.8105   -21.1474 H          1  LIG1   0.0900
     43 H20       -18.8614    18.1274   -21.6959 H          1  LIG1   0.0800
     44 H21       -22.3492    19.4255   -21.6106 H          1  LIG1   0.0600
     45 H22       -20.9190    20.3673   -22.0960 H          1  LIG1   0.0700
     46 H23       -21.1045    18.6842   -22.6447 H          1  LIG1   0.0600
     47 H24       -22.9069    16.5762   -19.6203 H          1  LIG1   0.0700
     48 H25       -22.7211    18.2592   -19.0717 H          1  LIG1   0.0600
     49 H26       -23.0748    17.9144   -20.7818 H          1  LIG1   0.0600
     50 H27       -20.6635    16.0194   -18.6715 H          1  LIG1   0.0900
     51 H28       -20.4779    17.7025   -18.1230 H          1  LIG1   0.0900
     52 H29       -14.9682    15.9436   -14.9267 H          1  LIG1   0.1400
@<TRIPOS>BOND
     1    1    2 1
     2    1   29 1
     3    1   30 1
     4    1   31 1
     5    2    3 1
     6    3   28 ar
     7    3    4 ar
     8    4    5 ar
     9    4   32 1
    10    5    6 1
    11    5    8 ar
    12    6    7 1
    13    7   33 1
    14    7   34 1
    15    7   35 1
    16    8    9 ar
    17    8   36 1
    18    9   10 1
    19    9   28 ar
    20   10   11 am
    21   10   37 1
    22   11   12 2
    23   11   13 1
    24   13   14 1
    25   13   38 1
    26   13   39 1
    27   14   15 1
    28   14   16 1
    29   14   17 1
    30   17   18 1
    31   17   27 1
    32   17   19 1
    33   19   20 1
    34   19   40 1
    35   19   41 1
    36   20   21 1
    37   20   42 1
    38   20   43 1
    39   21   22 1
    40   21   23 1
    41   21   24 1
    42   23   44 1
    43   23   45 1
    44   23   46 1
    45   24   25 1
    46   24   26 1
    47   24   27 1
    48   26   47 1
    49   26   48 1
    50   26   49 1
    51   27   50 1
    52   27   51 1
    53   28   52 1
##########                 Name:     ZINC000666614106
##########          Protonation:                 none
##########               SMILES:   O=C(NC1=CC(Cl)=CC(Cl)=C1)N1CC[C@@H]2CC[NH2+][C@@H]2C1
##########            Long Name:   NO_LONG_NAME
##########          FlexRecCode: 1
##########               Number:                 3052
##########   Ligand Source File: /nfs/db/export/3D/DG/ADRO/DGADRO.xaus.db2.gz
##########                 Rank:                    1
##########               Setnum:                   15
##########             Matchnum:                    1
##########                Cloud:                    1
##########        Electrostatic:           -47.340622
##########                 Gist:             0.000000
##########        Van der Waals:           -28.087963
##########  Ligand Polar Desolv:            15.076485
########## Ligand Apolar Desolv:            -4.003436
##########      Internal Energy:             0.000000
##########      Receptor Energy:             0.000000
########## Receptor Desolvation:             0.000000
########## Receptor Hydrophobic:             0.000000
##########         Total Energy:           -64.355537
##########        Ligand Charge:             1.000000
##########            Arbitrary:    +999.9990
##########        Ligand Energy:             0.000000

@<TRIPOS>MOLECULE
 ZINC000666614106      none
   38    40     0     0     0



@<TRIPOS>ATOM
      1 O1        -16.2681    17.4094   -15.4264 O.2        1  LIG1  -0.5500
      2 C1        -16.4304    16.4973   -16.2139 C.2        1  LIG1   0.7100
      3 N1        -16.7080    15.2582   -15.7623 N.am       1  LIG1  -0.6800
      4 C2        -15.8042    14.6022   -14.9187 C.ar       1  LIG1   0.1700
      5 C3        -16.0862    13.3233   -14.4573 C.ar       1  LIG1  -0.1100
      6 C4        -15.1918    12.6776   -13.6242 C.ar       1  LIG1  -0.0100
      7 Cl1       -15.5437    11.0787   -13.0468 Cl         1  LIG1  -0.0400
      8 C5        -14.0162    13.3044   -13.2505 C.ar       1  LIG1  -0.1100
      9 C6        -13.7329    14.5791   -13.7086 C.ar       1  LIG1  -0.0100
     10 Cl2       -12.2571    15.3622   -13.2371 Cl         1  LIG1  -0.0400
     11 C7        -14.6214    15.2270   -14.5465 C.ar       1  LIG1  -0.1300
     12 N2        -16.3382    16.7267   -17.5389 N.am       1  LIG1  -0.6400
     13 C8        -16.0364    18.0686   -18.0628 C.3        1  LIG1   0.1000
     14 C9        -17.1757    18.4751   -18.9963 C.3        1  LIG1  -0.1400
     15 C10       -17.3424    17.4530   -20.1239 C.3        1  LIG1  -0.1000
     16 H1        -16.5234    17.4955   -20.8418 H          1  LIG1   0.1400
     17 C11       -18.7230    17.7425   -20.7797 C.3        1  LIG1  -0.1400
     18 C12       -19.7170    16.8400   -20.0226 C.3        1  LIG1   0.0000
     19 N3        -18.9359    16.0812   -19.0157 N.4        1  LIG1  -0.5200
     20 H2        -18.9517    16.5588   -18.1271 H          1  LIG1   0.4300
     21 H3        -19.3036    15.1466   -18.9184 H          1  LIG1   0.4300
     22 C13       -17.5445    16.0377   -19.5516 C.3        1  LIG1   0.0300
     23 H4        -17.5006    15.3143   -20.3656 H          1  LIG1   0.1500
     24 C14       -16.5289    15.6472   -18.5142 C.3        1  LIG1   0.1100
     25 H5        -17.5340    14.8211   -16.0218 H          1  LIG1   0.4100
     26 H6        -17.0036    12.8338   -14.7487 H          1  LIG1   0.1600
     27 H7        -13.3185    12.7980   -12.5999 H          1  LIG1   0.1500
     28 H8        -14.3998    16.2217   -14.9039 H          1  LIG1   0.1400
     29 H9        -15.9636    18.7785   -17.2388 H          1  LIG1   0.0900
     30 H10       -15.0970    18.0462   -18.6152 H          1  LIG1   0.0900
     31 H11       -18.1028    18.5352   -18.4263 H          1  LIG1   0.0700
     32 H12       -16.9559    19.4520   -19.4269 H          1  LIG1   0.1100
     33 H13       -18.9906    18.7914   -20.6529 H          1  LIG1   0.1100
     34 H14       -18.7028    17.4805   -21.8376 H          1  LIG1   0.1100
     35 H15       -20.4692    17.4520   -19.5248 H          1  LIG1   0.1300
     36 H16       -20.1962    16.1504   -20.7176 H          1  LIG1   0.1400
     37 H17       -15.5793    15.4336   -19.0049 H          1  LIG1   0.1200
     38 H18       -16.8725    14.7523   -17.9955 H          1  LIG1   0.1200
@<TRIPOS>BOND
     1    1    2 2
     2    2    3 am
     3    2   12 am
     4    3    4 1
     5    3   25 1
     6    4   11 ar
     7    4    5 ar
     8    5    6 ar
     9    5   26 1
    10    6    7 1
    11    6    8 ar
    12    8    9 ar
    13    8   27 1
    14    9   10 1
    15    9   11 ar
    16   11   28 1
    17   12   24 1
    18   12   13 1
    19   13   14 1
    20   13   29 1
    21   13   30 1
    22   14   15 1
    23   14   31 1
    24   14   32 1
    25   15   16 1
    26   15   22 1
    27   15   17 1
    28   17   18 1
    29   17   33 1
    30   17   34 1
    31   18   19 1
    32   18   35 1
    33   18   36 1
    34   19   20 1
    35   19   21 1
    36   19   22 1
    37   22   23 1
    38   22   24 1
    39   24   37 1
    40   24   38 1
##########                 Name:     ZINC000640028109
##########          Protonation:                 none
##########               SMILES:   O=C(C[N@@H+]1C[C@@H](O)C[C@@H]1C1CC1)NC1=CC=C(Br)C=C1
##########            Long Name:   NO_LONG_NAME
##########          FlexRecCode: 1
##########               Number:                 8469
##########   Ligand Source File: /nfs/db/export/3D/EE/ADRO/EEADRO.xclw.db2.gz
##########                 Rank:                    1
##########               Setnum:                   30
##########             Matchnum:                    1
##########                Cloud:                    1
##########        Electrostatic:           -51.794598
##########                 Gist:             0.000000
##########        Van der Waals:           -25.921526
##########  Ligand Polar Desolv:            13.560961
########## Ligand Apolar Desolv:            -3.003454
##########      Internal Energy:             0.000000
##########      Receptor Energy:             0.000000
########## Receptor Desolvation:             0.000000
########## Receptor Hydrophobic:             0.000000
##########         Total Energy:           -67.158615
##########        Ligand Charge:             1.000000
##########            Arbitrary:    +999.9990
##########        Ligand Energy:             0.000000

@<TRIPOS>MOLECULE
 ZINC000640028109      none
   40    42     0     0     0



@<TRIPOS>ATOM
      1 O1        -17.6350    17.9778   -15.5861 O.2        1  LIG1  -0.5100
      2 C1        -18.0275    17.0864   -16.3089 C.2        1  LIG1   0.5000
      3 C2        -19.2854    17.2711   -17.1179 C.3        1  LIG1  -0.0300
      4 N1        -19.1904    16.4870   -18.3567 N.4        1  LIG1  -0.3700
      5 H1        -19.0772    15.5097   -18.1330 H          1  LIG1   0.4400
      6 C3        -18.0348    16.9526   -19.1527 C.3        1  LIG1  -0.0400
      7 C4        -18.4986    16.8401   -20.6264 C.3        1  LIG1   0.0900
      8 H2        -17.9456    17.5304   -21.2635 H          1  LIG1   0.1200
      9 O2        -18.3743    15.4981   -21.1013 O.3        1  LIG1  -0.5500
     10 C5        -19.9893    17.2566   -20.5185 C.3        1  LIG1  -0.1500
     11 C6        -20.4143    16.6741   -19.1573 C.3        1  LIG1   0.0600
     12 H3        -20.9089    15.7139   -19.3032 H          1  LIG1   0.1500
     13 C7        -21.3612    17.6449   -18.4488 C.3        1  LIG1  -0.2200
     14 C8        -22.8639    17.4395   -18.6502 C.3        1  LIG1  -0.1800
     15 C9        -22.2172    17.0907   -17.3082 C.3        1  LIG1  -0.1400
     16 N2        -17.3357    15.9327   -16.3926 N.am       1  LIG1  -0.6500
     17 C10       -16.1674    15.7613   -15.6412 C.ar       1  LIG1   0.1300
     18 C11       -15.7925    14.4930   -15.2180 C.ar       1  LIG1  -0.1100
     19 C12       -14.6388    14.3267   -14.4771 C.ar       1  LIG1  -0.0700
     20 C13       -13.8572    15.4224   -14.1562 C.ar       1  LIG1  -0.0900
     21 Br1       -12.2783    15.1907   -13.1416 Br         1  LIG1  -0.0300
     22 C14       -14.2284    16.6872   -14.5768 C.ar       1  LIG1  -0.0700
     23 C15       -15.3780    16.8585   -15.3228 C.ar       1  LIG1  -0.1200
     24 H4        -20.1435    16.9315   -16.5379 H          1  LIG1   0.1700
     25 H5        -19.4077    18.3259   -17.3641 H          1  LIG1   0.1600
     26 H6        -17.7974    17.9877   -18.9075 H          1  LIG1   0.1400
     27 H7        -17.1704    16.3122   -18.9770 H          1  LIG1   0.1500
     28 H8        -18.8960    14.8544   -20.6028 H          1  LIG1   0.4000
     29 H9        -20.0871    18.3422   -20.5195 H          1  LIG1   0.1300
     30 H10       -20.5721    16.8153   -21.3269 H          1  LIG1   0.1300
     31 H11       -21.0008    18.6694   -18.3558 H          1  LIG1   0.1300
     32 H12       -23.4926    18.3292   -18.6898 H          1  LIG1   0.1100
     33 H13       -23.1779    16.6130   -19.2875 H          1  LIG1   0.1200
     34 H14       -22.1058    16.0346   -17.0627 H          1  LIG1   0.1100
     35 H15       -22.4204    17.7508   -16.4650 H          1  LIG1   0.1100
     36 H16       -17.6474    15.2214   -16.9736 H          1  LIG1   0.4200
     37 H17       -16.4026    13.6375   -15.4675 H          1  LIG1   0.1400
     38 H18       -14.3467    13.3405   -14.1476 H          1  LIG1   0.1400
     39 H19       -13.6164    17.5406   -14.3249 H          1  LIG1   0.1400
     40 H20       -15.6672    17.8459   -15.6510 H          1  LIG1   0.1400
@<TRIPOS>BOND
     1    1    2 2
     2    2    3 1
     3    2   16 am
     4    3    4 1
     5    3   24 1
     6    3   25 1
     7    4    5 1
     8    4   11 1
     9    4    6 1
    10    6    7 1
    11    6   26 1
    12    6   27 1
    13    7    8 1
    14    7    9 1
    15    7   10 1
    16    9   28 1
    17   10   11 1
    18   10   29 1
    19   10   30 1
    20   11   12 1
    21   11   13 1
    22   13   15 1
    23   13   14 1
    24   13   31 1
    25   14   15 1
    26   14   32 1
    27   14   33 1
    28   15   34 1
    29   15   35 1
    30   16   17 1
    31   16   36 1
    32   17   23 ar
    33   17   18 ar
    34   18   19 ar
    35   18   37 1
    36   19   20 ar
    37   19   38 1
    38   20   21 1
    39   20   22 ar
    40   22   23 ar
    41   22   39 1
    42   23   40 1
##########                 Name:     ZINC000301675210
##########          Protonation:                 none
##########               SMILES:   Nc1nc(-n2cccn2)cc(NC[C@H]2CC(=O)Nc3ccccc32)[nH+]1
##########            Long Name:   NO_LONG_NAME
##########          FlexRecCode: 1
##########               Number:                14675
##########   Ligand Source File: /nfs/db/export/3D/ED/ADRO/EDADRO.xddk.db2.gz
##########                 Rank:                    1
##########               Setnum:                   22
##########             Matchnum:                    1
##########                Cloud:                    1
##########        Electrostatic:           -42.026222
##########                 Gist:             0.000000
##########        Van der Waals:           -31.261244
##########  Ligand Polar Desolv:            13.197008
########## Ligand Apolar Desolv:            -3.848852
##########      Internal Energy:             0.000000
##########      Receptor Energy:             0.000000
########## Receptor Desolvation:             0.000000
########## Receptor Hydrophobic:             0.000000
##########         Total Energy:           -63.939312
##########        Ligand Charge:             1.000000
##########            Arbitrary:    +999.9990
##########        Ligand Energy:             0.000000

@<TRIPOS>MOLECULE
 ZINC000301675210      none
   43    46     0     0     0



@<TRIPOS>ATOM
      1 N1        -16.5567    14.9665   -14.9620 N.pl3      1  LIG1  -0.7900
      2 C1        -16.4230    15.9147   -15.9611 C.ar       1  LIG1   0.6900
      3 N2        -17.1499    15.7982   -17.0621 N.ar       1  LIG1  -0.5900
      4 H1        -17.7643    15.0533   -17.1544 H          1  LIG1   0.4400
      5 C2        -17.0476    16.6915   -18.0428 C.ar       1  LIG1   0.5100
      6 N3        -17.8119    16.5638   -19.1917 N.pl3      1  LIG1  -0.6800
      7 C3        -17.4086    17.2527   -20.4200 C.3        1  LIG1   0.1100
      8 C4        -18.0462    18.6430   -20.4579 C.3        1  LIG1  -0.0500
      9 H2        -18.0177    19.0830   -19.4611 H          1  LIG1   0.1100
     10 C5        -17.2705    19.5329   -21.4299 C.3        1  LIG1  -0.1400
     11 C6        -17.5320    19.0947   -22.8457 C.2        1  LIG1   0.5200
     12 O1        -16.6433    19.1640   -23.6682 O.2        1  LIG1  -0.5200
     13 N4        -18.7399    18.6265   -23.2097 N.am       1  LIG1  -0.6600
     14 C7        -19.7717    18.5228   -22.2716 C.ar       1  LIG1   0.1700
     15 C8        -21.0901    18.4161   -22.6928 C.ar       1  LIG1  -0.1500
     16 C9        -22.1046    18.3144   -21.7606 C.ar       1  LIG1  -0.0700
     17 C10       -21.8081    18.3191   -20.4102 C.ar       1  LIG1  -0.1400
     18 C11       -20.4953    18.4251   -19.9876 C.ar       1  LIG1  -0.0700
     19 C12       -19.4772    18.5267   -20.9145 C.ar       1  LIG1  -0.1400
     20 C13       -16.1616    17.7573   -17.8987 C.ar       1  LIG1  -0.3100
     21 C14       -15.4163    17.8445   -16.7295 C.ar       1  LIG1   0.5600
     22 N5        -14.5166    18.8954   -16.5413 N.pl3      1  LIG1  -0.3400
     23 C15       -13.7288    19.0896   -15.4511 C.2        1  LIG1   0.0700
     24 C16       -13.0079    20.2142   -15.6624 C.2        1  LIG1  -0.2300
     25 C17       -13.3624    20.7252   -16.9166 C.2        1  LIG1   0.1000
     26 N6        -14.2604    19.9347   -17.4451 N.2        1  LIG1  -0.2800
     27 N7        -15.5755    16.9178   -15.7891 N.ar       1  LIG1  -0.5800
     28 H3        -16.0347    15.0428   -14.1479 H          1  LIG1   0.4500
     29 H4        -17.1752    14.2277   -15.0740 H          1  LIG1   0.4300
     30 H5        -18.6140    16.0184   -19.1825 H          1  LIG1   0.4200
     31 H6        -16.3231    17.3501   -20.4424 H          1  LIG1   0.0900
     32 H7        -17.7396    16.6775   -21.2846 H          1  LIG1   0.1100
     33 H8        -17.5895    20.5678   -21.3064 H          1  LIG1   0.1200
     34 H9        -16.2040    19.4563   -21.2183 H          1  LIG1   0.1000
     35 H10       -18.8962    18.3597   -24.1290 H          1  LIG1   0.4200
     36 H11       -21.3225    18.4130   -23.7476 H          1  LIG1   0.1300
     37 H12       -23.1307    18.2315   -22.0871 H          1  LIG1   0.1400
     38 H13       -22.6033    18.2402   -19.6836 H          1  LIG1   0.1300
     39 H14       -20.2666    18.4284   -18.9320 H          1  LIG1   0.1300
     40 H15       -16.0565    18.4979   -18.6777 H          1  LIG1   0.1900
     41 H16       -13.6863    18.4600   -14.5746 H          1  LIG1   0.2000
     42 H17       -12.2860    20.6428   -14.9829 H          1  LIG1   0.1700
     43 H18       -12.9601    21.6182   -17.3718 H          1  LIG1   0.2100
@<TRIPOS>BOND
     1    1    2 1
     2    1   28 1
     3    1   29 1
     4    2   27 ar
     5    2    3 ar
     6    3    4 1
     7    3    5 ar
     8    5    6 1
     9    5   20 ar
    10    6    7 1
    11    6   30 1
    12    7    8 1
    13    7   31 1
    14    7   32 1
    15    8    9 1
    16    8   19 1
    17    8   10 1
    18   10   11 1
    19   10   33 1
    20   10   34 1
    21   11   12 2
    22   11   13 am
    23   13   14 1
    24   13   35 1
    25   14   19 ar
    26   14   15 ar
    27   15   16 ar
    28   15   36 1
    29   16   17 ar
    30   16   37 1
    31   17   18 ar
    32   17   38 1
    33   18   19 ar
    34   18   39 1
    35   20   21 ar
    36   20   40 1
    37   21   22 1
    38   21   27 ar
    39   22   26 1
    40   22   23 1
    41   23   24 2
    42   23   41 1
    43   24   25 1
    44   24   42 1
    45   25   26 2
    46   25   43 1
##########                 Name:     ZINC000275794416
##########          Protonation:                 none
##########               SMILES:   CC(C)C1=NN=C2C=CC(NC(=O)[C@@H](C3CC3)[NH+]3CCCC3)=CN21
##########            Long Name:   NO_LONG_NAME
##########          FlexRecCode: 1
##########               Number:                  357
##########   Ligand Source File: /nfs/db/export/3D/EF/ADRO/EFADRO.xbjk.db2.gz
##########                 Rank:                    1
##########               Setnum:                   62
##########             Matchnum:                    1
##########                Cloud:                    1
##########        Electrostatic:           -45.782539
##########                 Gist:             0.000000
##########        Van der Waals:           -32.128311
##########  Ligand Polar Desolv:            19.736395
########## Ligand Apolar Desolv:            -5.902233
##########      Internal Energy:             0.000000
##########      Receptor Energy:             0.000000
########## Receptor Desolvation:             0.000000
########## Receptor Hydrophobic:             0.000000
##########         Total Energy:           -64.076691
##########        Ligand Charge:             1.000000
##########            Arbitrary:    +999.9990
##########        Ligand Energy:             0.000000

@<TRIPOS>MOLECULE
 ZINC000275794416      none
   50    53     0     0     0



@<TRIPOS>ATOM
      1 C1        -14.9586    11.8615   -14.8921 C.3        1  LIG1  -0.1500
      2 C2        -15.1218    12.6370   -13.5833 C.3        1  LIG1   0.0000
      3 C3        -14.4219    11.8813   -12.4519 C.3        1  LIG1  -0.1500
      4 C4        -14.5063    14.0047   -13.7299 C.2        1  LIG1   0.1600
      5 N1        -13.5259    14.4925   -13.0138 N.2        1  LIG1  -0.2400
      6 N2        -13.2430    15.6869   -13.4001 N.2        1  LIG1  -0.2700
      7 C5        -14.0416    16.0282   -14.3992 C.2        1  LIG1   0.1700
      8 C6        -14.1677    17.1922   -15.1819 C.2        1  LIG1  -0.0400
      9 C7        -15.1103    17.2382   -16.1603 C.2        1  LIG1  -0.1400
     10 C8        -15.9464    16.1238   -16.3781 C.2        1  LIG1   0.1300
     11 N3        -16.9197    16.1669   -17.3867 N.am       1  LIG1  -0.6300
     12 C9        -17.4852    17.3420   -17.7276 C.2        1  LIG1   0.5200
     13 O1        -17.1522    18.3620   -17.1620 O.2        1  LIG1  -0.4900
     14 C10       -18.5312    17.3884   -18.8114 C.3        1  LIG1   0.0500
     15 H1        -18.8694    18.4158   -18.9462 H          1  LIG1   0.1600
     16 C11       -17.9316    16.8729   -20.1213 C.3        1  LIG1  -0.2100
     17 C12       -18.0935    17.7487   -21.3653 C.3        1  LIG1  -0.1500
     18 C13       -16.7262    17.6241   -20.6903 C.3        1  LIG1  -0.1500
     19 N4        -19.6707    16.5439   -18.4288 N.4        1  LIG1  -0.3800
     20 H2        -19.3695    15.5895   -18.3011 H          1  LIG1   0.4400
     21 C14       -20.2916    17.0565   -17.1806 C.3        1  LIG1  -0.0100
     22 C15       -21.7232    16.4659   -17.2284 C.3        1  LIG1  -0.1400
     23 C16       -22.0799    16.5453   -18.7306 C.3        1  LIG1  -0.1400
     24 C17       -20.7258    16.6118   -19.4630 C.3        1  LIG1   0.0000
     25 C18       -15.8122    15.0110   -15.6160 C.2        1  LIG1   0.0300
     26 N5        -14.8645    14.9553   -14.6348 N.pl3      1  LIG1  -0.3800
     27 H3        -15.4572    12.3998   -15.6981 H          1  LIG1   0.0700
     28 H4        -13.8986    11.7596   -15.1243 H          1  LIG1   0.0600
     29 H5        -15.4041    10.8722   -14.7861 H          1  LIG1   0.0700
     30 H6        -16.1819    12.7387   -13.3511 H          1  LIG1   0.0800
     31 H7        -14.5383    12.4339   -11.5197 H          1  LIG1   0.0700
     32 H8        -14.8672    10.8921   -12.3460 H          1  LIG1   0.0700
     33 H9        -13.3619    11.7797   -12.6842 H          1  LIG1   0.0600
     34 H10       -13.5222    18.0401   -15.0062 H          1  LIG1   0.1700
     35 H11       -15.2185    18.1244   -16.7678 H          1  LIG1   0.2000
     36 H12       -17.1861    15.3513   -17.8389 H          1  LIG1   0.4200
     37 H13       -17.9618    15.7922   -20.2589 H          1  LIG1   0.1400
     38 H14       -18.2306    17.2441   -22.3217 H          1  LIG1   0.1200
     39 H15       -18.6273    18.6921   -21.2506 H          1  LIG1   0.1100
     40 H16       -16.3604    18.4854   -20.1315 H          1  LIG1   0.1000
     41 H17       -15.9636    17.0374   -21.2025 H          1  LIG1   0.1200
     42 H18       -19.7539    16.6915   -16.3056 H          1  LIG1   0.1400
     43 H19       -20.3244    18.1460   -17.1865 H          1  LIG1   0.1300
     44 H20       -21.7254    15.4314   -16.8856 H          1  LIG1   0.1000
     45 H21       -22.4101    17.0710   -16.6365 H          1  LIG1   0.1200
     46 H22       -22.6308    15.6557   -19.0360 H          1  LIG1   0.1100
     47 H23       -22.6651    17.4420   -18.9336 H          1  LIG1   0.1100
     48 H24       -20.6464    17.5500   -20.0121 H          1  LIG1   0.1300
     49 H25       -20.6321    15.7687   -20.1475 H          1  LIG1   0.1400
     50 H26       -16.4563    14.1614   -15.7888 H          1  LIG1   0.1700
@<TRIPOS>BOND
     1    1    2 1
     2    1   27 1
     3    1   28 1
     4    1   29 1
     5    2    3 1
     6    2    4 1
     7    2   30 1
     8    3   31 1
     9    3   32 1
    10    3   33 1
    11    4   26 1
    12    4    5 2
    13    5    6 1
    14    6    7 2
    15    7   26 1
    16    7    8 1
    17    8    9 2
    18    8   34 1
    19    9   10 1
    20    9   35 1
    21   10   11 1
    22   10   25 2
    23   11   12 am
    24   11   36 1
    25   12   13 2
    26   12   14 1
    27   14   15 1
    28   14   16 1
    29   14   19 1
    30   16   18 1
    31   16   17 1
    32   16   37 1
    33   17   18 1
    34   17   38 1
    35   17   39 1
    36   18   40 1
    37   18   41 1
    38   19   20 1
    39   19   24 1
    40   19   21 1
    41   21   22 1
    42   21   42 1
    43   21   43 1
    44   22   23 1
    45   22   44 1
    46   22   45 1
    47   23   24 1
    48   23   46 1
    49   23   47 1
    50   24   48 1
    51   24   49 1
    52   25   26 1
    53   25   50 1
##########                 Name:     ZINC000657852679
##########          Protonation:                 none
##########               SMILES:   O=C(C[NH2+][C@@H]1CCCSCC1)NC1=CC=C(Br)C=C1
##########            Long Name:   NO_LONG_NAME
##########          FlexRecCode: 1
##########               Number:                10665
##########   Ligand Source File: /nfs/db/export/3D/EG/ADRO/EGADRO.xbej.db2.gz
##########                 Rank:                    1
##########               Setnum:                   20
##########             Matchnum:                    1
##########                Cloud:                    1
##########        Electrostatic:           -50.699268
##########                 Gist:             0.000000
##########        Van der Waals:           -28.034893
##########  Ligand Polar Desolv:            17.798775
########## Ligand Apolar Desolv:            -4.435099
##########      Internal Energy:             0.000000
##########      Receptor Energy:             0.000000
########## Receptor Desolvation:             0.000000
########## Receptor Hydrophobic:             0.000000
##########         Total Energy:           -65.370483
##########        Ligand Charge:             1.000000
##########            Arbitrary:    +999.9990
##########        Ligand Energy:             0.000000

@<TRIPOS>MOLECULE
 ZINC000657852679      none
   39    40     0     0     0



@<TRIPOS>ATOM
      1 O1        -15.7959    17.0616   -17.8919 O.2        1  LIG1  -0.5100
      2 C1        -16.7371    16.3004   -17.8160 C.2        1  LIG1   0.5000
      3 C2        -17.8942    16.4347   -18.7722 C.3        1  LIG1  -0.0300
      4 N1        -19.1273    16.6894   -18.0159 N.4        1  LIG1  -0.5000
      5 H1        -19.2999    15.9210   -17.3851 H          1  LIG1   0.4400
      6 H2        -19.0274    17.5429   -17.4871 H          1  LIG1   0.4400
      7 C3        -20.2553    16.8203   -18.9480 C.3        1  LIG1   0.0400
      8 H3        -20.1356    16.0745   -19.7338 H          1  LIG1   0.1400
      9 C4        -20.1901    18.2088   -19.5891 C.3        1  LIG1  -0.1600
     10 C5        -20.6566    18.0046   -21.0151 C.3        1  LIG1  -0.1300
     11 C6        -22.0913    18.5621   -21.1634 C.3        1  LIG1  -0.1000
     12 S1        -23.0919    18.1875   -19.6860 S.3        1  LIG1  -0.2200
     13 C7        -22.6883    16.5103   -19.1984 C.3        1  LIG1  -0.0900
     14 C8        -21.4769    16.5288   -18.2270 C.3        1  LIG1  -0.1600
     15 N2        -16.7459    15.3308   -16.8798 N.am       1  LIG1  -0.6500
     16 C9        -15.6714    15.2060   -15.9916 C.ar       1  LIG1   0.1300
     17 C10       -15.3292    13.9592   -15.4847 C.ar       1  LIG1  -0.1100
     18 C11       -14.2682    13.8388   -14.6088 C.ar       1  LIG1  -0.0700
     19 C12       -13.5467    14.9590   -14.2359 C.ar       1  LIG1  -0.0900
     20 Br1       -12.0947    14.7901   -13.0364 Br         1  LIG1  -0.0300
     21 C13       -13.8854    16.2023   -14.7395 C.ar       1  LIG1  -0.0700
     22 C14       -14.9420    16.3277   -15.6201 C.ar       1  LIG1  -0.1200
     23 H4        -17.7077    17.2648   -19.4537 H          1  LIG1   0.1700
     24 H5        -18.0022    15.5127   -19.3436 H          1  LIG1   0.1700
     25 H6        -20.8548    18.8979   -19.0683 H          1  LIG1   0.1300
     26 H7        -19.1670    18.5844   -19.5756 H          1  LIG1   0.1000
     27 H8        -19.9886    18.5319   -21.6961 H          1  LIG1   0.1000
     28 H9        -20.6530    16.9403   -21.2508 H          1  LIG1   0.0800
     29 H10       -22.0434    19.6426   -21.2990 H          1  LIG1   0.1200
     30 H11       -22.5615    18.1126   -22.0380 H          1  LIG1   0.1000
     31 H12       -23.5471    16.0610   -18.6996 H          1  LIG1   0.1300
     32 H13       -22.4371    15.9258   -20.0834 H          1  LIG1   0.1000
     33 H14       -21.3846    15.5543   -17.7475 H          1  LIG1   0.1000
     34 H15       -21.6393    17.2892   -17.4631 H          1  LIG1   0.1100
     35 H16       -17.4967    14.7196   -16.8214 H          1  LIG1   0.4200
     36 H17       -15.8925    13.0845   -15.7748 H          1  LIG1   0.1500
     37 H18       -14.0016    12.8693   -14.2143 H          1  LIG1   0.1400
     38 H19       -13.3206    17.0751   -14.4468 H          1  LIG1   0.1500
     39 H20       -15.2058    17.2984   -16.0131 H          1  LIG1   0.1400
@<TRIPOS>BOND
     1    1    2 2
     2    2    3 1
     3    2   15 am
     4    3    4 1
     5    3   23 1
     6    3   24 1
     7    4    5 1
     8    4    6 1
     9    4    7 1
    10    7    8 1
    11    7   14 1
    12    7    9 1
    13    9   10 1
    14    9   25 1
    15    9   26 1
    16   10   11 1
    17   10   27 1
    18   10   28 1
    19   11   12 1
    20   11   29 1
    21   11   30 1
    22   12   13 1
    23   13   14 1
    24   13   31 1
    25   13   32 1
    26   14   33 1
    27   14   34 1
    28   15   16 1
    29   15   35 1
    30   16   22 ar
    31   16   17 ar
    32   17   18 ar
    33   17   36 1
    34   18   19 ar
    35   18   37 1
    36   19   20 1
    37   19   21 ar
    38   21   22 ar
    39   21   38 1
    40   22   39 1
##########                 Name:     ZINC000594511648
##########          Protonation:                 none
##########               SMILES:   C[C@H](C[NH2+][C@@H](C)CCC1=CC=CC=C1[N+](=O)[O-])C(=O)OC(C)(C)C
##########            Long Name:   NO_LONG_NAME
##########          FlexRecCode: 1
##########               Number:                 7009
##########   Ligand Source File: /nfs/db/export/3D/EG/BDRO/EGBDRO.xaf.db2.gz
##########                 Rank:                    1
##########               Setnum:                  104
##########             Matchnum:                    1
##########                Cloud:                    1
##########        Electrostatic:           -44.538361
##########                 Gist:             0.000000
##########        Van der Waals:           -31.826832
##########  Ligand Polar Desolv:            15.342906
########## Ligand Apolar Desolv:            -6.302941
##########      Internal Energy:             0.000000
##########      Receptor Energy:             0.000000
########## Receptor Desolvation:             0.000000
########## Receptor Hydrophobic:             0.000000
##########         Total Energy:           -67.325226
##########        Ligand Charge:             1.000000
##########            Arbitrary:    +999.9990
##########        Ligand Energy:             0.000000

@<TRIPOS>MOLECULE
 ZINC000594511648      none
   53    53     0     0     0



@<TRIPOS>ATOM
      1 C1        -19.7468    17.1875   -19.8559 C.3        1  LIG1  -0.1700
      2 C2        -18.2727    16.8907   -20.1387 C.3        1  LIG1  -0.1100
      3 H1        -18.1574    15.8385   -20.3991 H          1  LIG1   0.1300
      4 C3        -17.4417    17.2016   -18.8923 C.3        1  LIG1   0.0000
      5 N1        -17.5495    16.0872   -17.9413 N.4        1  LIG1  -0.5100
      6 H2        -18.5156    15.9615   -17.6787 H          1  LIG1   0.4300
      7 H3        -17.2056    15.2425   -18.3727 H          1  LIG1   0.4300
      8 C4        -16.7516    16.3858   -16.7445 C.3        1  LIG1   0.0300
      9 H4        -15.8166    16.8613   -17.0408 H          1  LIG1   0.1400
     10 C5        -17.5364    17.3289   -15.8304 C.3        1  LIG1  -0.1900
     11 C6        -16.4480    15.0860   -15.9966 C.3        1  LIG1  -0.1400
     12 C7        -15.2468    15.2976   -15.0730 C.3        1  LIG1  -0.1100
     13 C8        -14.9479    14.0174   -14.3364 C.ar       1  LIG1  -0.0300
     14 C9        -15.7202    12.8937   -14.5623 C.ar       1  LIG1  -0.1100
     15 C10       -15.4459    11.7191   -13.8865 C.ar       1  LIG1  -0.0500
     16 C11       -14.3992    11.6685   -12.9852 C.ar       1  LIG1  -0.1100
     17 C12       -13.6261    12.7925   -12.7599 C.ar       1  LIG1  -0.0500
     18 C13       -13.8977    13.9654   -13.4387 C.ar       1  LIG1  -0.0500
     19 N2        -13.0700    15.1686   -13.1975 N.pl3      1  LIG1   0.0400
     20 O1        -13.3141    16.2046   -13.7898 O.2        1  LIG1  -0.1300
     21 O2        -12.1447    15.1227   -12.4067 O.2        1  LIG1  -0.2100
     22 C14       -17.7989    17.7467   -21.2848 C.2        1  LIG1   0.4800
     23 O3        -18.3280    17.6543   -22.3671 O.2        1  LIG1  -0.4900
     24 O4        -16.7888    18.6120   -21.1034 O.3        1  LIG1  -0.3400
     25 C15       -16.3851    19.4041   -22.2515 C.3        1  LIG1   0.1200
     26 C16       -17.5681    20.2477   -22.7304 C.3        1  LIG1  -0.1900
     27 C17       -15.2295    20.3250   -21.8545 C.3        1  LIG1  -0.1500
     28 C18       -15.9321    18.4743   -23.3787 C.3        1  LIG1  -0.1900
     29 H5        -19.8621    18.2397   -19.5956 H          1  LIG1   0.1000
     30 H6        -20.3389    16.9660   -20.7440 H          1  LIG1   0.0700
     31 H7        -20.0895    16.5684   -19.0270 H          1  LIG1   0.0800
     32 H8        -16.3980    17.3375   -19.1760 H          1  LIG1   0.1400
     33 H9        -17.8132    18.1142   -18.4263 H          1  LIG1   0.1400
     34 H10       -16.9442    17.5504   -14.9426 H          1  LIG1   0.0900
     35 H11       -17.7526    18.2548   -16.3633 H          1  LIG1   0.0800
     36 H12       -18.4713    16.8532   -15.5344 H          1  LIG1   0.1100
     37 H13       -17.3158    14.7969   -15.4039 H          1  LIG1   0.1100
     38 H14       -16.2199    14.2984   -16.7148 H          1  LIG1   0.0900
     39 H15       -14.3791    15.5868   -15.6659 H          1  LIG1   0.1000
     40 H16       -15.4750    16.0853   -14.3549 H          1  LIG1   0.1000
     41 H17       -16.5381    12.9332   -15.2665 H          1  LIG1   0.1500
     42 H18       -16.0498    10.8412   -14.0625 H          1  LIG1   0.1500
     43 H19       -14.1855    10.7513   -12.4568 H          1  LIG1   0.1600
     44 H20       -12.8085    12.7530   -12.0554 H          1  LIG1   0.1600
     45 H21       -17.2652    20.8424   -23.5922 H          1  LIG1   0.0600
     46 H22       -18.3914    19.5917   -23.0131 H          1  LIG1   0.0800
     47 H23       -17.8909    20.9102   -21.9272 H          1  LIG1   0.0800
     48 H24       -14.9263    20.9197   -22.7162 H          1  LIG1   0.0700
     49 H25       -15.5523    20.9875   -21.0514 H          1  LIG1   0.0900
     50 H26       -14.3867    19.7239   -21.5131 H          1  LIG1   0.0700
     51 H27       -15.6291    19.0689   -24.2405 H          1  LIG1   0.0800
     52 H28       -15.0891    17.8733   -23.0375 H          1  LIG1   0.0800
     53 H29       -16.7553    17.8181   -23.6615 H          1  LIG1   0.0600
@<TRIPOS>BOND
     1    1    2 1
     2    1   29 1
     3    1   30 1
     4    1   31 1
     5    2    3 1
     6    2    4 1
     7    2   22 1
     8    4    5 1
     9    4   32 1
    10    4   33 1
    11    5    6 1
    12    5    7 1
    13    5    8 1
    14    8    9 1
    15    8   10 1
    16    8   11 1
    17   10   34 1
    18   10   35 1
    19   10   36 1
    20   11   12 1
    21   11   37 1
    22   11   38 1
    23   12   13 1
    24   12   39 1
    25   12   40 1
    26   13   18 ar
    27   13   14 ar
    28   14   15 ar
    29   14   41 1
    30   15   16 ar
    31   15   42 1
    32   16   17 ar
    33   16   43 1
    34   17   18 ar
    35   17   44 1
    36   18   19 1
    37   19   20 2
    38   19   21 2
    39   22   23 2
    40   22   24 1
    41   24   25 1
    42   25   26 1
    43   25   27 1
    44   25   28 1
    45   26   45 1
    46   26   46 1
    47   26   47 1
    48   27   48 1
    49   27   49 1
    50   27   50 1
    51   28   51 1
    52   28   52 1
    53   28   53 1
##########                 Name:     ZINC000646092836
##########          Protonation:                 none
##########               SMILES:   CC1=C(Cl)C=CC=C1NC(=O)C[NH2+][C@@H]1CCC[C@H]2C[C@H]21
##########            Long Name:   NO_LONG_NAME
##########          FlexRecCode: 1
##########               Number:                 6619
##########   Ligand Source File: /nfs/db/export/3D/CG/ADRO/CGADRO.xbux.db2.gz
##########                 Rank:                    1
##########               Setnum:                   33
##########             Matchnum:                    1
##########                Cloud:                    1
##########        Electrostatic:           -47.138893
##########                 Gist:             0.000000
##########        Van der Waals:           -27.168995
##########  Ligand Polar Desolv:            15.506525
########## Ligand Apolar Desolv:            -5.322176
##########      Internal Energy:             0.000000
##########      Receptor Energy:             0.000000
########## Receptor Desolvation:             0.000000
########## Receptor Hydrophobic:             0.000000
##########         Total Energy:           -64.123543
##########        Ligand Charge:             1.000000
##########            Arbitrary:    +999.9990
##########        Ligand Energy:             0.000000

@<TRIPOS>MOLECULE
 ZINC000646092836      none
   42    44     0     0     0



@<TRIPOS>ATOM
      1 C1        -16.3023    12.8014   -15.6194 C.3        1  LIG1  -0.1300
      2 C2        -15.4907    14.0285   -15.2928 C.ar       1  LIG1  -0.0900
      3 C3        -14.4931    13.9644   -14.3384 C.ar       1  LIG1  -0.0200
      4 Cl1       -14.1748    12.4693   -13.5154 Cl         1  LIG1  -0.0500
      5 C4        -13.7474    15.0913   -14.0386 C.ar       1  LIG1  -0.1000
      6 C5        -13.9985    16.2835   -14.6917 C.ar       1  LIG1  -0.0900
      7 C6        -14.9950    16.3538   -15.6459 C.ar       1  LIG1  -0.1100
      8 C7        -15.7404    15.2236   -15.9543 C.ar       1  LIG1   0.1300
      9 N1        -16.7503    15.2923   -16.9205 N.am       1  LIG1  -0.6400
     10 C8        -16.6396    16.1537   -17.9511 C.2        1  LIG1   0.5000
     11 O1        -15.6646    16.8695   -18.0411 O.2        1  LIG1  -0.5100
     12 C9        -17.7272    16.2276   -18.9916 C.3        1  LIG1  -0.0300
     13 N2        -18.9941    16.6031   -18.3500 N.4        1  LIG1  -0.4900
     14 H1        -19.2381    15.9114   -17.6570 H          1  LIG1   0.4400
     15 H2        -18.8922    17.5032   -17.9055 H          1  LIG1   0.4300
     16 C10       -20.0542    16.6752   -19.3643 C.3        1  LIG1   0.0700
     17 H3        -19.9340    15.8544   -20.0715 H          1  LIG1   0.1400
     18 C11       -19.9521    18.0058   -20.1102 C.3        1  LIG1  -0.1500
     19 C12       -21.1418    18.1200   -21.0702 C.3        1  LIG1  -0.1200
     20 C13       -22.3978    18.4285   -20.2552 C.3        1  LIG1  -0.1000
     21 C14       -22.5956    17.3861   -19.1658 C.3        1  LIG1  -0.1100
     22 H4        -23.3159    17.6640   -18.3965 H          1  LIG1   0.1200
     23 C15       -22.5313    15.9047   -19.5138 C.3        1  LIG1  -0.1600
     24 C16       -21.4158    16.5606   -18.6825 C.3        1  LIG1  -0.2100
     25 H5        -21.3780    16.3182   -17.6205 H          1  LIG1   0.1300
     26 H6        -15.9644    11.9679   -15.0038 H          1  LIG1   0.0800
     27 H7        -17.3553    12.9982   -15.4184 H          1  LIG1   0.0900
     28 H8        -16.1741    12.5507   -16.6724 H          1  LIG1   0.0700
     29 H9        -12.9680    15.0391   -13.2927 H          1  LIG1   0.1400
     30 H10       -13.4152    17.1612   -14.4554 H          1  LIG1   0.1400
     31 H11       -15.1905    17.2858   -16.1552 H          1  LIG1   0.1400
     32 H12       -17.5301    14.7199   -16.8485 H          1  LIG1   0.4200
     33 H13       -17.4635    16.9747   -19.7403 H          1  LIG1   0.1700
     34 H14       -17.8372    15.2553   -19.4718 H          1  LIG1   0.1700
     35 H15       -19.9779    18.8287   -19.3959 H          1  LIG1   0.0900
     36 H16       -19.0210    18.0376   -20.6760 H          1  LIG1   0.0900
     37 H17       -20.9611    18.9249   -21.7828 H          1  LIG1   0.0900
     38 H18       -21.2736    17.1785   -21.6035 H          1  LIG1   0.0800
     39 H19       -22.2968    19.4125   -19.7974 H          1  LIG1   0.0800
     40 H20       -23.2647    18.4271   -20.9160 H          1  LIG1   0.0900
     41 H21       -23.2190    15.2354   -18.9969 H          1  LIG1   0.1100
     42 H22       -22.3016    15.6390   -20.5456 H          1  LIG1   0.1100
@<TRIPOS>BOND
     1    1    2 1
     2    1   26 1
     3    1   27 1
     4    1   28 1
     5    2    8 ar
     6    2    3 ar
     7    3    4 1
     8    3    5 ar
     9    5    6 ar
    10    5   29 1
    11    6    7 ar
    12    6   30 1
    13    7    8 ar
    14    7   31 1
    15    8    9 1
    16    9   10 am
    17    9   32 1
    18   10   11 2
    19   10   12 1
    20   12   13 1
    21   12   33 1
    22   12   34 1
    23   13   14 1
    24   13   15 1
    25   13   16 1
    26   16   17 1
    27   16   24 1
    28   16   18 1
    29   18   19 1
    30   18   35 1
    31   18   36 1
    32   19   20 1
    33   19   37 1
    34   19   38 1
    35   20   21 1
    36   20   39 1
    37   20   40 1
    38   21   22 1
    39   21   24 1
    40   21   23 1
    41   23   24 1
    42   23   41 1
    43   23   42 1
    44   24   25 1
##########                 Name:     ZINC000366649577
##########          Protonation:                 none
##########               SMILES:   CC1=CC=C(CNC(=O)C[N@@H+]2CC[C@@H]([C@@H]3CCOC3)C2)C=C1
##########            Long Name:   NO_LONG_NAME
##########          FlexRecCode: 1
##########               Number:                 5668
##########   Ligand Source File: /nfs/db/export/3D/DD/ADRO/DDADRO.xadd.db2.gz
##########                 Rank:                    1
##########               Setnum:                  128
##########             Matchnum:                    1
##########                Cloud:                    1
##########        Electrostatic:           -47.846313
##########                 Gist:             0.000000
##########        Van der Waals:           -30.892956
##########  Ligand Polar Desolv:            18.427372
########## Ligand Apolar Desolv:            -4.610525
##########      Internal Energy:             0.000000
##########      Receptor Energy:             0.000000
########## Receptor Desolvation:             0.000000
########## Receptor Hydrophobic:             0.000000
##########         Total Energy:           -64.922424
##########        Ligand Charge:             1.000000
##########            Arbitrary:    +999.9990
##########        Ligand Energy:             0.000000

@<TRIPOS>MOLECULE
 ZINC000366649577      none
   49    51     0     0     0



@<TRIPOS>ATOM
      1 C1        -14.6219    10.6741   -12.6342 C.3        1  LIG1  -0.1300
      2 C2        -14.7940    11.9674   -13.3885 C.ar       1  LIG1  -0.0600
      3 C3        -14.1091    13.0987   -12.9861 C.ar       1  LIG1  -0.1200
      4 C4        -14.2670    14.2850   -13.6780 C.ar       1  LIG1  -0.0900
      5 C5        -15.1096    14.3399   -14.7725 C.ar       1  LIG1  -0.1400
      6 C6        -15.2821    15.6333   -15.5264 C.3        1  LIG1   0.1600
      7 N1        -16.7048    15.8551   -15.7967 N.am       1  LIG1  -0.7000
      8 C7        -17.1860    17.1107   -15.8863 C.2        1  LIG1   0.5000
      9 O1        -16.4412    18.0571   -15.7432 O.2        1  LIG1  -0.5300
     10 C8        -18.6495    17.3389   -16.1642 C.3        1  LIG1  -0.0300
     11 N2        -19.0102    16.7193   -17.4766 N.4        1  LIG1  -0.3800
     12 H1        -18.8092    15.6886   -17.4185 H          1  LIG1   0.4300
     13 C9        -18.1993    17.2465   -18.6416 C.3        1  LIG1  -0.0100
     14 C10       -19.1569    17.1520   -19.8115 C.3        1  LIG1  -0.1400
     15 C11       -20.4800    17.5687   -19.1864 C.3        1  LIG1  -0.1000
     16 H2        -20.4702    18.6787   -18.9987 H          1  LIG1   0.1100
     17 C12       -21.6914    17.2218   -20.0506 C.3        1  LIG1  -0.1200
     18 H3        -21.7431    16.1428   -20.2197 H          1  LIG1   0.1000
     19 C13       -21.6827    17.9714   -21.3667 C.3        1  LIG1  -0.1500
     20 C14       -22.3119    19.3017   -21.0065 C.3        1  LIG1   0.0400
     21 O2        -23.1789    19.0681   -19.8884 O.3        1  LIG1  -0.3700
     22 C15       -22.9869    17.7213   -19.4318 C.3        1  LIG1   0.0500
     23 C16       -20.4789    16.8452   -17.8449 C.3        1  LIG1  -0.0100
     24 C17       -15.7935    13.2083   -15.1757 C.ar       1  LIG1  -0.0900
     25 C18       -15.6326    12.0210   -14.4862 C.ar       1  LIG1  -0.1200
     26 H4        -13.9283    10.8255   -11.8071 H          1  LIG1   0.0800
     27 H5        -15.5867    10.3496   -12.2445 H          1  LIG1   0.0700
     28 H6        -14.2261     9.9119   -13.3054 H          1  LIG1   0.0700
     29 H7        -13.4508    13.0558   -12.1310 H          1  LIG1   0.1300
     30 H8        -13.7324    15.1690   -13.3631 H          1  LIG1   0.1200
     31 H9        -14.8932    16.4572   -14.9280 H          1  LIG1   0.0900
     32 H10       -14.7372    15.5799   -16.4689 H          1  LIG1   0.0900
     33 H11       -17.3005    15.0980   -15.9112 H          1  LIG1   0.4100
     34 H12       -19.2448    16.8846   -15.3721 H          1  LIG1   0.1600
     35 H13       -18.8497    18.4096   -16.2006 H          1  LIG1   0.1600
     36 H14       -17.9112    18.2727   -18.4383 H          1  LIG1   0.1300
     37 H15       -17.3277    16.6155   -18.7821 H          1  LIG1   0.1500
     38 H16       -18.8671    17.8375   -20.6226 H          1  LIG1   0.1200
     39 H17       -19.2088    16.1251   -20.2046 H          1  LIG1   0.1000
     40 H18       -20.6551    18.1051   -21.7412 H          1  LIG1   0.0800
     41 H19       -22.2774    17.4428   -22.1291 H          1  LIG1   0.0900
     42 H20       -21.5373    20.0483   -20.7353 H          1  LIG1   0.1000
     43 H21       -22.8942    19.7105   -21.8579 H          1  LIG1   0.0700
     44 H22       -23.8272    17.1005   -19.7514 H          1  LIG1   0.0700
     45 H23       -22.9156    17.7086   -18.3416 H          1  LIG1   0.0800
     46 H24       -20.8960    15.8574   -17.9363 H          1  LIG1   0.1400
     47 H25       -20.9772    17.4275   -17.0895 H          1  LIG1   0.1400
     48 H26       -16.4515    13.2511   -16.0311 H          1  LIG1   0.1200
     49 H27       -16.1669    11.1369   -14.8011 H          1  LIG1   0.1300
@<TRIPOS>BOND
     1    1    2 1
     2    1   26 1
     3    1   27 1
     4    1   28 1
     5    2   25 ar
     6    2    3 ar
     7    3    4 ar
     8    3   29 1
     9    4    5 ar
    10    4   30 1
    11    5    6 1
    12    5   24 ar
    13    6    7 1
    14    6   31 1
    15    6   32 1
    16    7    8 am
    17    7   33 1
    18    8    9 2
    19    8   10 1
    20   10   11 1
    21   10   34 1
    22   10   35 1
    23   11   12 1
    24   11   23 1
    25   11   13 1
    26   13   14 1
    27   13   36 1
    28   13   37 1
    29   14   15 1
    30   14   38 1
    31   14   39 1
    32   15   16 1
    33   15   17 1
    34   15   23 1
    35   17   18 1
    36   17   22 1
    37   17   19 1
    38   19   20 1
    39   19   40 1
    40   19   41 1
    41   20   21 1
    42   20   42 1
    43   20   43 1
    44   21   22 1
    45   22   44 1
    46   22   45 1
    47   23   46 1
    48   23   47 1
    49   24   25 ar
    50   24   48 1
    51   25   49 1
##########                 Name:     ZINC000253552236
##########          Protonation:                 none
##########               SMILES:   CC(C)[N@H+]1C[C@H](C)[C@H](NC(=O)C2=CC(=O)NC3=CC(F)=CC=C32)C1
##########            Long Name:   NO_LONG_NAME
##########          FlexRecCode: 1
##########               Number:                 2435
##########   Ligand Source File: /nfs/db/export/3D/EF/ADMO/EFADMO.xbpj.db2.gz
##########                 Rank:                    1
##########               Setnum:                   10
##########             Matchnum:                    1
##########                Cloud:                    1
##########        Electrostatic:           -43.317589
##########                 Gist:             0.000000
##########        Van der Waals:           -33.049324
##########  Ligand Polar Desolv:            16.297173
########## Ligand Apolar Desolv:            -3.927650
##########      Internal Energy:             0.000000
##########      Receptor Energy:             0.000000
########## Receptor Desolvation:             0.000000
########## Receptor Hydrophobic:             0.000000
##########         Total Energy:           -63.997391
##########        Ligand Charge:             1.000000
##########            Arbitrary:    +999.9990
##########        Ligand Energy:             0.000000

@<TRIPOS>MOLECULE
 ZINC000253552236      none
   47    49     0     0     0



@<TRIPOS>ATOM
      1 C1        -20.9736    16.1249   -20.2425 C.3        1  LIG1  -0.1800
      2 C2        -20.6475    16.9037   -18.9665 C.3        1  LIG1   0.0300
      3 C3        -21.7152    16.6190   -17.9083 C.3        1  LIG1  -0.1800
      4 N1        -19.3331    16.4863   -18.4605 N.4        1  LIG1  -0.3900
      5 H1        -19.3373    15.4988   -18.2529 H          1  LIG1   0.4200
      6 C4        -18.2826    16.7936   -19.4553 C.3        1  LIG1  -0.0100
      7 C5        -17.0238    17.2063   -18.6701 C.3        1  LIG1  -0.1100
      8 H2        -16.7266    18.2203   -18.9375 H          1  LIG1   0.1300
      9 C6        -15.8804    16.2283   -18.9474 C.3        1  LIG1  -0.1600
     10 C7        -17.4376    17.1434   -17.1819 C.3        1  LIG1   0.1300
     11 H3        -17.0076    17.9770   -16.6265 H          1  LIG1   0.1500
     12 N2        -17.0388    15.8656   -16.5865 N.am       1  LIG1  -0.7300
     13 C8        -15.8546    15.7583   -15.9520 C.2        1  LIG1   0.5700
     14 O1        -15.1179    16.7211   -15.8736 O.2        1  LIG1  -0.4900
     15 C9        -15.4509    14.4645   -15.3492 C.2        1  LIG1  -0.0200
     16 C10       -15.8706    13.2812   -15.8865 C.2        1  LIG1  -0.1600
     17 C11       -15.4753    12.0556   -15.2978 C.2        1  LIG1   0.5300
     18 O2        -15.8590    11.0094   -15.7902 O.2        1  LIG1  -0.5200
     19 N3        -14.6872    12.0171   -14.2098 N.am       1  LIG1  -0.6200
     20 C12       -14.2287    13.1754   -13.6190 C.ar       1  LIG1   0.2200
     21 C13       -13.4133    13.1275   -12.4939 C.ar       1  LIG1  -0.2100
     22 C14       -12.9669    14.3021   -11.9210 C.ar       1  LIG1   0.1700
     23 F1        -12.1743    14.2546   -10.8280 F          1  LIG1  -0.1200
     24 C15       -13.3257    15.5334   -12.4592 C.ar       1  LIG1  -0.1800
     25 C16       -14.1258    15.6013   -13.5640 C.ar       1  LIG1  -0.0300
     26 C17       -14.5841    14.4246   -14.1623 C.ar       1  LIG1  -0.1300
     27 C18       -18.9816    17.2639   -17.2448 C.3        1  LIG1  -0.0200
     28 H4        -20.2130    16.3278   -20.9964 H          1  LIG1   0.1100
     29 H5        -20.9912    15.0576   -20.0221 H          1  LIG1   0.0800
     30 H6        -21.9489    16.4347   -20.6179 H          1  LIG1   0.0800
     31 H7        -20.6297    17.9711   -19.1868 H          1  LIG1   0.1400
     32 H8        -21.4828    17.1738   -16.9993 H          1  LIG1   0.0800
     33 H9        -22.6905    16.9286   -18.2836 H          1  LIG1   0.0800
     34 H10       -21.7329    15.5517   -17.6880 H          1  LIG1   0.1100
     35 H11       -18.0714    15.9099   -20.0575 H          1  LIG1   0.1400
     36 H12       -18.6063    17.6140   -20.0959 H          1  LIG1   0.1400
     37 H13       -14.9974    16.5328   -18.3857 H          1  LIG1   0.0800
     38 H14       -16.1778    15.2253   -18.6412 H          1  LIG1   0.0800
     39 H15       -15.6515    16.2298   -20.0132 H          1  LIG1   0.0600
     40 H16       -17.6270    15.0969   -16.6490 H          1  LIG1   0.4100
     41 H17       -16.5048    13.2802   -16.7608 H          1  LIG1   0.1600
     42 H18       -14.4367    11.1590   -13.8332 H          1  LIG1   0.4300
     43 H19       -13.1304    12.1755   -12.0695 H          1  LIG1   0.1500
     44 H20       -12.9689    16.4433   -11.9995 H          1  LIG1   0.1500
     45 H21       -14.4002    16.5611   -13.9763 H          1  LIG1   0.1800
     46 H22       -19.2819    18.3058   -17.3558 H          1  LIG1   0.1500
     47 H23       -19.4383    16.8230   -16.3588 H          1  LIG1   0.1400
@<TRIPOS>BOND
     1    1    2 1
     2    1   28 1
     3    1   29 1
     4    1   30 1
     5    2    3 1
     6    2    4 1
     7    2   31 1
     8    3   32 1
     9    3   33 1
    10    3   34 1
    11    4    5 1
    12    4   27 1
    13    4    6 1
    14    6    7 1
    15    6   35 1
    16    6   36 1
    17    7    8 1
    18    7    9 1
    19    7   10 1
    20    9   37 1
    21    9   38 1
    22    9   39 1
    23   10   11 1
    24   10   12 1
    25   10   27 1
    26   12   13 am
    27   12   40 1
    28   13   14 2
    29   13   15 1
    30   15   26 1
    31   15   16 2
    32   16   17 1
    33   16   41 1
    34   17   18 2
    35   17   19 am
    36   19   20 1
    37   19   42 1
    38   20   26 ar
    39   20   21 ar
    40   21   22 ar
    41   21   43 1
    42   22   23 1
    43   22   24 ar
    44   24   25 ar
    45   24   44 1
    46   25   26 ar
    47   25   45 1
    48   27   46 1
    49   27   47 1
##########                 Name:     ZINC000414571266
##########          Protonation:                 none
##########               SMILES:   COC(=O)C1=C(C[NH2+][C@H](C)CC2=CN(C)C3=CC=C(F)C=C23)C=CO1
##########            Long Name:   NO_LONG_NAME
##########          FlexRecCode: 1
##########               Number:                 5571
##########   Ligand Source File: /nfs/db/export/3D/EG/ADRO/EGADRO.xaip.db2.gz
##########                 Rank:                    1
##########               Setnum:                   22
##########             Matchnum:                    1
##########                Cloud:                    1
##########        Electrostatic:           -40.780277
##########                 Gist:             0.000000
##########        Van der Waals:           -31.014561
##########  Ligand Polar Desolv:            14.144083
########## Ligand Apolar Desolv:            -6.327211
##########      Internal Energy:             0.000000
##########      Receptor Energy:             0.000000
########## Receptor Desolvation:             0.000000
########## Receptor Hydrophobic:             0.000000
##########         Total Energy:           -63.977966
##########        Ligand Charge:             1.000000
##########            Arbitrary:    +999.9990
##########        Ligand Energy:             0.000000

@<TRIPOS>MOLECULE
 ZINC000414571266      none
   47    49     0     0     0



@<TRIPOS>ATOM
      1 C1        -19.8495    19.1734   -22.8373 C.3        1  LIG1   0.0300
      2 O1        -20.5837    18.2529   -21.9877 O.3        1  LIG1  -0.3300
      3 C2        -20.0944    18.0402   -20.7487 C.2        1  LIG1   0.5500
      4 O2        -19.0813    18.6092   -20.3890 O.2        1  LIG1  -0.4900
      5 C3        -20.7830    17.1242   -19.8366 C.2        1  LIG1  -0.0200
      6 C4        -20.4007    16.8243   -18.5595 C.2        1  LIG1  -0.1500
      7 C5        -19.2002    17.3681   -17.8287 C.3        1  LIG1   0.0700
      8 N1        -18.0441    16.4938   -18.0674 N.4        1  LIG1  -0.5100
      9 H1        -18.2500    15.5649   -17.7314 H          1  LIG1   0.4300
     10 H2        -17.8480    16.4579   -19.0565 H          1  LIG1   0.4200
     11 C6        -16.8739    17.0239   -17.3550 C.3        1  LIG1   0.0300
     12 H3        -17.0857    17.0625   -16.2865 H          1  LIG1   0.1400
     13 C7        -16.5617    18.4325   -17.8643 C.3        1  LIG1  -0.1800
     14 C8        -15.6698    16.1132   -17.6036 C.3        1  LIG1  -0.0600
     15 C9        -15.7557    14.9094   -16.7011 C.2        1  LIG1  -0.2300
     16 C10       -16.3529    13.7408   -16.9835 C.2        1  LIG1   0.1100
     17 N2        -16.2285    12.8850   -15.9233 N.pl3      1  LIG1  -0.4700
     18 C11       -16.7586    11.5202   -15.8766 C.3        1  LIG1   0.0700
     19 C12       -15.5298    13.4983   -14.9059 C.ar       1  LIG1   0.0900
     20 C13       -15.1331    13.0893   -13.6375 C.ar       1  LIG1  -0.0800
     21 C14       -14.4266    13.9503   -12.8269 C.ar       1  LIG1  -0.1300
     22 C15       -14.1034    15.2297   -13.2633 C.ar       1  LIG1   0.1000
     23 F1        -13.4097    16.0605   -12.4546 F          1  LIG1  -0.1300
     24 C16       -14.4864    15.6549   -14.5172 C.ar       1  LIG1  -0.1500
     25 C17       -15.1980    14.7906   -15.3516 C.ar       1  LIG1  -0.0900
     26 C18       -21.3425    15.9119   -18.0602 C.2        1  LIG1  -0.2100
     27 C19       -22.2472    15.6969   -19.0413 C.2        1  LIG1   0.0400
     28 O3        -21.9096    16.4329   -20.1079 O.3        1  LIG1  -0.1300
     29 H4        -20.3489    19.2537   -23.8028 H          1  LIG1   0.0700
     30 H5        -19.8136    20.1548   -22.3641 H          1  LIG1   0.0700
     31 H6        -18.8348    18.8030   -22.9828 H          1  LIG1   0.1200
     32 H7        -18.9778    18.3716   -18.1915 H          1  LIG1   0.1500
     33 H8        -19.4120    17.4068   -16.7601 H          1  LIG1   0.1500
     34 H9        -15.6934    18.8258   -17.3357 H          1  LIG1   0.0800
     35 H10       -16.3500    18.3938   -18.9329 H          1  LIG1   0.0800
     36 H11       -17.4195    19.0813   -17.6871 H          1  LIG1   0.1100
     37 H12       -15.6688    15.7880   -18.6440 H          1  LIG1   0.0900
     38 H13       -14.7509    16.6603   -17.3931 H          1  LIG1   0.1200
     39 H14       -16.8573    13.5105   -17.9103 H          1  LIG1   0.1800
     40 H15       -16.5149    11.0684   -14.9150 H          1  LIG1   0.0800
     41 H16       -17.8411    11.5463   -16.0019 H          1  LIG1   0.0900
     42 H17       -16.3143    10.9301   -16.6782 H          1  LIG1   0.0900
     43 H18       -15.3791    12.0975   -13.2880 H          1  LIG1   0.1400
     44 H19       -14.1209    13.6281   -11.8423 H          1  LIG1   0.1500
     45 H20       -14.2337    16.6494   -14.8540 H          1  LIG1   0.1300
     46 H21       -21.3440    15.4649   -17.0772 H          1  LIG1   0.1800
     47 H22       -23.1033    15.0419   -18.9747 H          1  LIG1   0.2300
@<TRIPOS>BOND
     1    1    2 1
     2    1   29 1
     3    1   30 1
     4    1   31 1
     5    2    3 1
     6    3    4 2
     7    3    5 1
     8    5   28 1
     9    5    6 2
    10    6    7 1
    11    6   26 1
    12    7    8 1
    13    7   32 1
    14    7   33 1
    15    8    9 1
    16    8   10 1
    17    8   11 1
    18   11   12 1
    19   11   13 1
    20   11   14 1
    21   13   34 1
    22   13   35 1
    23   13   36 1
    24   14   15 1
    25   14   37 1
    26   14   38 1
    27   15   25 1
    28   15   16 2
    29   16   17 1
    30   16   39 1
    31   17   18 1
    32   17   19 1
    33   18   40 1
    34   18   41 1
    35   18   42 1
    36   19   25 ar
    37   19   20 ar
    38   20   21 ar
    39   20   43 1
    40   21   22 ar
    41   21   44 1
    42   22   23 1
    43   22   24 ar
    44   24   25 ar
    45   24   45 1
    46   26   27 2
    47   26   46 1
    48   27   28 1
    49   27   47 1
##########                 Name:     ZINC000185158323
##########          Protonation:                 none
##########               SMILES:   CC1=CC=CN=C1/C=C/C(=O)N[C@@H]1C[N@@H+](C(C)C)C[C@@H]1C
##########            Long Name:   NO_LONG_NAME
##########          FlexRecCode: 1
##########               Number:                 3469
##########   Ligand Source File: /nfs/db/export/3D/CE/ADMO/CEADMO.xbes.db2.gz
##########                 Rank:                    1
##########               Setnum:                   14
##########             Matchnum:                    1
##########                Cloud:                    1
##########        Electrostatic:           -46.347935
##########                 Gist:             0.000000
##########        Van der Waals:           -27.608610
##########  Ligand Polar Desolv:            14.328423
########## Ligand Apolar Desolv:            -4.827252
##########      Internal Energy:             0.000000
##########      Receptor Energy:             0.000000
########## Receptor Desolvation:             0.000000
########## Receptor Hydrophobic:             0.000000
##########         Total Energy:           -64.455368
##########        Ligand Charge:             1.000000
##########            Arbitrary:    +999.9990
##########        Ligand Energy:             0.000000

@<TRIPOS>MOLECULE
 ZINC000185158323      none
   47    48     0     0     0



@<TRIPOS>ATOM
      1 C1        -16.3850    11.9200   -15.9333 C.3        1  LIG1  -0.1200
      2 C2        -15.4668    12.3120   -14.8044 C.ar       1  LIG1  -0.1000
      3 C3        -14.9267    11.3474   -13.9713 C.ar       1  LIG1  -0.0800
      4 C4        -14.0860    11.7536   -12.9451 C.ar       1  LIG1  -0.1500
      5 C5        -13.8123    13.1017   -12.7834 C.ar       1  LIG1   0.0900
      6 N1        -14.3382    13.9999   -13.5880 N.ar       1  LIG1  -0.4700
      7 C6        -15.1439    13.6534   -14.5870 C.ar       1  LIG1   0.1200
      8 C7        -15.7107    14.6936   -15.4640 C.2        1  LIG1   0.0000
      9 C8        -15.9363    15.9307   -14.9824 C.2        1  LIG1  -0.2000
     10 C9        -16.5003    16.9657   -15.8550 C.2        1  LIG1   0.5600
     11 O1        -16.2220    18.1355   -15.6696 O.2        1  LIG1  -0.5200
     12 N2        -17.3269    16.6211   -16.8621 N.am       1  LIG1  -0.7300
     13 C10       -17.8904    17.6551   -17.7336 C.3        1  LIG1   0.1300
     14 H1        -17.5423    18.6431   -17.4325 H          1  LIG1   0.1400
     15 C11       -19.4386    17.5937   -17.7271 C.3        1  LIG1  -0.0200
     16 N3        -19.7392    16.4951   -18.6803 N.4        1  LIG1  -0.3900
     17 H2        -19.6192    15.6005   -18.2295 H          1  LIG1   0.4200
     18 C12       -21.1112    16.6267   -19.1887 C.3        1  LIG1   0.0300
     19 C13       -21.4036    15.4882   -20.1682 C.3        1  LIG1  -0.1800
     20 C14       -22.0966    16.5598   -18.0202 C.3        1  LIG1  -0.1800
     21 C15       -18.7679    16.6434   -19.7859 C.3        1  LIG1  -0.0100
     22 C16       -17.5356    17.3772   -19.2124 C.3        1  LIG1  -0.1100
     23 H3        -17.3699    18.3127   -19.7465 H          1  LIG1   0.1300
     24 C17       -16.2954    16.4861   -19.3068 C.3        1  LIG1  -0.1500
     25 H4        -16.5134    10.8376   -15.9379 H          1  LIG1   0.0800
     26 H5        -17.3538    12.4005   -15.7971 H          1  LIG1   0.0800
     27 H6        -15.9516    12.2385   -16.8814 H          1  LIG1   0.0800
     28 H7        -15.1549    10.3018   -14.1168 H          1  LIG1   0.1400
     29 H8        -13.6491    11.0251   -12.2782 H          1  LIG1   0.1400
     30 H9        -13.1581    13.4200   -11.9852 H          1  LIG1   0.1600
     31 H10       -15.9454    14.4636   -16.4927 H          1  LIG1   0.1500
     32 H11       -15.7016    16.1608   -13.9536 H          1  LIG1   0.1400
     33 H12       -17.5488    15.6885   -17.0100 H          1  LIG1   0.4100
     34 H13       -19.8097    17.3512   -16.7314 H          1  LIG1   0.1400
     35 H14       -19.8625    18.5345   -18.0782 H          1  LIG1   0.1500
     36 H15       -21.2188    17.5830   -19.7005 H          1  LIG1   0.1400
     37 H16       -22.4216    15.5859   -20.5454 H          1  LIG1   0.0800
     38 H17       -20.7014    15.5357   -21.0006 H          1  LIG1   0.1100
     39 H18       -21.2960    14.5319   -19.6563 H          1  LIG1   0.0800
     40 H19       -23.1146    16.6576   -18.3975 H          1  LIG1   0.0800
     41 H20       -21.9890    15.6036   -17.5084 H          1  LIG1   0.1100
     42 H21       -21.8882    17.3709   -17.3224 H          1  LIG1   0.0800
     43 H22       -18.4755    15.6613   -20.1576 H          1  LIG1   0.1300
     44 H23       -19.2083    17.2320   -20.5908 H          1  LIG1   0.1400
     45 H24       -16.0601    16.3008   -20.3549 H          1  LIG1   0.0800
     46 H25       -15.4526    16.9845   -18.8280 H          1  LIG1   0.0800
     47 H26       -16.4900    15.5382   -18.8050 H          1  LIG1   0.0600
@<TRIPOS>BOND
     1    1    2 1
     2    1   25 1
     3    1   26 1
     4    1   27 1
     5    2    7 ar
     6    2    3 ar
     7    3    4 ar
     8    3   28 1
     9    4    5 ar
    10    4   29 1
    11    5    6 ar
    12    5   30 1
    13    6    7 ar
    14    7    8 1
    15    8    9 2
    16    8   31 1
    17    9   10 1
    18    9   32 1
    19   10   11 2
    20   10   12 am
    21   12   13 1
    22   12   33 1
    23   13   14 1
    24   13   22 1
    25   13   15 1
    26   15   16 1
    27   15   34 1
    28   15   35 1
    29   16   17 1
    30   16   18 1
    31   16   21 1
    32   18   19 1
    33   18   20 1
    34   18   36 1
    35   19   37 1
    36   19   38 1
    37   19   39 1
    38   20   40 1
    39   20   41 1
    40   20   42 1
    41   21   22 1
    42   21   43 1
    43   21   44 1
    44   22   23 1
    45   22   24 1
    46   24   45 1
    47   24   46 1
    48   24   47 1
##########                 Name:     ZINC000485951008
##########          Protonation:                 none
##########               SMILES:   FC1=CC=C2NC(NCC3=CN(C4=CC=C(F)C(Cl)=C4)N=N3)=[NH+]C2=C1
##########            Long Name:   NO_LONG_NAME
##########          FlexRecCode: 1
##########               Number:                 7117
##########   Ligand Source File: /nfs/db/export/3D/FG/ADMO/FGADMO.xbmc.db2.gz
##########                 Rank:                    1
##########               Setnum:                  195
##########             Matchnum:                    1
##########                Cloud:                    1
##########        Electrostatic:           -37.079769
##########                 Gist:             0.000000
##########        Van der Waals:           -37.004364
##########  Ligand Polar Desolv:            15.495451
########## Ligand Apolar Desolv:            -6.400896
##########      Internal Energy:             0.000000
##########      Receptor Energy:             0.000000
########## Receptor Desolvation:             0.000000
########## Receptor Hydrophobic:             0.000000
##########         Total Energy:           -64.989578
##########        Ligand Charge:             1.000000
##########            Arbitrary:    +999.9990
##########        Ligand Energy:             0.000000

@<TRIPOS>MOLECULE
 ZINC000485951008      none
   37    40     0     0     0



@<TRIPOS>ATOM
      1 F1        -23.4894    19.9304   -21.5791 F          1  LIG1  -0.1100
      2 C1        -22.8181    19.0084   -20.8549 C.ar       1  LIG1   0.1500
      3 C2        -23.4678    17.8558   -20.4338 C.ar       1  LIG1  -0.1100
      4 C3        -22.7949    16.9056   -19.6931 C.ar       1  LIG1  -0.0500
      5 C4        -21.4620    17.1011   -19.3666 C.ar       1  LIG1   0.0800
      6 N1        -20.5282    16.3620   -18.6569 N.pl3      1  LIG1  -0.5700
      7 C5        -19.3608    17.0699   -18.6657 C.cat      1  LIG1   0.6600
      8 N2        -18.1866    16.6686   -18.0642 N.pl3      1  LIG1  -0.6700
      9 C6        -16.9956    17.5180   -18.1431 C.3        1  LIG1   0.2000
     10 C7        -16.1496    17.3124   -16.9130 C.2        1  LIG1  -0.0600
     11 C8        -15.8203    16.1283   -16.3453 C.2        1  LIG1   0.0000
     12 N3        -15.0500    16.4303   -15.2647 N.pl3      1  LIG1  -0.2300
     13 C9        -14.4808    15.5067   -14.3752 C.ar       1  LIG1   0.1000
     14 C10       -13.7171    15.9523   -13.3054 C.ar       1  LIG1  -0.0800
     15 C11       -13.1576    15.0420   -12.4298 C.ar       1  LIG1  -0.1200
     16 C12       -13.3574    13.6854   -12.6190 C.ar       1  LIG1   0.1400
     17 F2        -12.8090    12.7966   -11.7619 F          1  LIG1  -0.1100
     18 C13       -14.1201    13.2378   -13.6864 C.ar       1  LIG1  -0.0600
     19 Cl1       -14.3700    11.5360   -13.9212 Cl         1  LIG1  -0.0100
     20 C14       -14.6856    14.1462   -14.5609 C.ar       1  LIG1  -0.0600
     21 N4        -14.9339    17.7107   -15.2012 N.2        1  LIG1  -0.0500
     22 N5        -15.5718    18.2639   -16.1711 N.2        1  LIG1  -0.2300
     23 N6        -19.5217    18.1864   -19.3314 N.pl3      1  LIG1  -0.5400
     24 H1        -18.8343    18.8555   -19.4748 H          1  LIG1   0.4600
     25 C15       -20.7987    18.2648   -19.7899 C.ar       1  LIG1   0.0900
     26 C16       -21.4907    19.2155   -20.5436 C.ar       1  LIG1  -0.1200
     27 H2        -24.5063    17.7020   -20.6873 H          1  LIG1   0.1700
     28 H3        -23.3060    16.0115   -19.3677 H          1  LIG1   0.1600
     29 H4        -20.6768    15.5024   -18.2327 H          1  LIG1   0.4600
     30 H5        -18.1492    15.8239   -17.5887 H          1  LIG1   0.4400
     31 H6        -16.4186    17.2534   -19.0293 H          1  LIG1   0.1100
     32 H7        -17.2982    18.5632   -18.2054 H          1  LIG1   0.1100
     33 H8        -16.1104    15.1439   -16.6816 H          1  LIG1   0.2000
     34 H9        -13.5602    17.0106   -13.1576 H          1  LIG1   0.1500
     35 H10       -12.5633    15.3891   -11.5974 H          1  LIG1   0.1700
     36 H11       -15.2798    13.7976   -15.3926 H          1  LIG1   0.1700
     37 H12       -20.9888    20.1112   -20.8790 H          1  LIG1   0.1600
@<TRIPOS>BOND
     1    1    2 1
     2    2   26 ar
     3    2    3 ar
     4    3    4 ar
     5    3   27 1
     6    4    5 ar
     7    4   28 1
     8    5   25 ar
     9    5    6 1
    10    6    7 1
    11    6   29 1
    12    7    8 1
    13    7   23 1
    14    8    9 1
    15    8   30 1
    16    9   10 1
    17    9   31 1
    18    9   32 1
    19   10   22 1
    20   10   11 2
    21   11   12 1
    22   11   33 1
    23   12   13 1
    24   12   21 1
    25   13   20 ar
    26   13   14 ar
    27   14   15 ar
    28   14   34 1
    29   15   16 ar
    30   15   35 1
    31   16   17 1
    32   16   18 ar
    33   18   19 1
    34   18   20 ar
    35   20   36 1
    36   21   22 2
    37   23   24 1
    38   23   25 1
    39   25   26 ar
    40   26   37 1
##########                 Name:     ZINC000624261462
##########          Protonation:                 none
##########               SMILES:   NC1=NC(NC[C@H]2CCCC[C@@H]2C2=CC=CC=C2)=NC(N)=[NH+]1
##########            Long Name:   NO_LONG_NAME
##########          FlexRecCode: 1
##########               Number:                 5447
##########   Ligand Source File: /nfs/db/export/3D/CD/ADRO/CDADRO.xbsq.db2.gz
##########                 Rank:                    1
##########               Setnum:                    7
##########             Matchnum:                    1
##########                Cloud:                    1
##########        Electrostatic:           -37.310104
##########                 Gist:             0.000000
##########        Van der Waals:           -28.407429
##########  Ligand Polar Desolv:             8.191269
########## Ligand Apolar Desolv:            -6.475917
##########      Internal Energy:             0.000000
##########      Receptor Energy:             0.000000
########## Receptor Desolvation:             0.000000
########## Receptor Hydrophobic:             0.000000
##########         Total Energy:           -64.002174
##########        Ligand Charge:             1.000000
##########            Arbitrary:    +999.9990
##########        Ligand Energy:             0.000000

@<TRIPOS>MOLECULE
 ZINC000624261462      none
   45    47     0     0     0



@<TRIPOS>ATOM
      1 N1        -14.5504    18.9308   -17.5958 N.pl3      1  LIG1  -0.7600
      2 C1        -15.4177    17.8899   -17.3330 C.ar       1  LIG1   0.6900
      3 N2        -16.5820    17.8179   -17.9700 N.ar       1  LIG1  -0.6200
      4 C2        -17.4173    16.8149   -17.7172 C.ar       1  LIG1   0.7000
      5 N3        -18.6262    16.7401   -18.3787 N.pl3      1  LIG1  -0.6500
      6 C3        -19.1923    17.9361   -19.0075 C.3        1  LIG1   0.0900
      7 C4        -20.5266    17.5824   -19.6673 C.3        1  LIG1  -0.0900
      8 H1        -20.3654    16.8154   -20.4249 H          1  LIG1   0.0900
      9 C5        -21.4961    17.0561   -18.6072 C.3        1  LIG1  -0.1200
     10 C6        -22.8305    16.7023   -19.2670 C.3        1  LIG1  -0.1200
     11 C7        -23.4217    17.9514   -19.9236 C.3        1  LIG1  -0.1200
     12 C8        -22.4522    18.4776   -20.9838 C.3        1  LIG1  -0.1100
     13 C9        -21.1179    18.8314   -20.3240 C.3        1  LIG1  -0.0400
     14 H2        -21.2792    19.5984   -19.5664 H          1  LIG1   0.0900
     15 C10       -20.1629    19.3498   -21.3682 C.ar       1  LIG1  -0.0900
     16 C11       -20.1127    20.7026   -21.6482 C.ar       1  LIG1  -0.1100
     17 C12       -19.2367    21.1781   -22.6059 C.ar       1  LIG1  -0.1100
     18 C13       -18.4105    20.3005   -23.2836 C.ar       1  LIG1  -0.1200
     19 C14       -18.4602    18.9483   -23.0028 C.ar       1  LIG1  -0.1200
     20 C15       -19.3332    18.4733   -22.0420 C.ar       1  LIG1  -0.1200
     21 N4        -17.0878    15.8838   -16.8277 N.ar       1  LIG1  -0.6400
     22 H3        -17.6968    15.1516   -16.6436 H          1  LIG1   0.4400
     23 C16       -15.9231    15.9558   -16.1904 C.ar       1  LIG1   0.7000
     24 N5        -15.5807    14.9888   -15.2672 N.pl3      1  LIG1  -0.7800
     25 N6        -15.0861    16.9561   -16.4466 N.ar       1  LIG1  -0.6200
     26 H4        -13.6982    18.9801   -17.1353 H          1  LIG1   0.4400
     27 H5        -14.7916    19.6111   -18.2440 H          1  LIG1   0.4400
     28 H6        -19.1011    15.8958   -18.4273 H          1  LIG1   0.4400
     29 H7        -19.3537    18.7030   -18.2499 H          1  LIG1   0.0900
     30 H8        -18.5016    18.3111   -19.7628 H          1  LIG1   0.0900
     31 H9        -21.0750    16.1662   -18.1393 H          1  LIG1   0.0600
     32 H10       -21.6575    17.8230   -17.8496 H          1  LIG1   0.0700
     33 H11       -22.6692    15.9354   -20.0245 H          1  LIG1   0.0700
     34 H12       -23.5212    16.3274   -18.5117 H          1  LIG1   0.0700
     35 H13       -24.3723    17.6993   -20.3937 H          1  LIG1   0.0700
     36 H14       -23.5831    18.7183   -19.1661 H          1  LIG1   0.0700
     37 H15       -22.2908    17.7107   -21.7413 H          1  LIG1   0.0700
     38 H16       -22.8734    19.3675   -21.4516 H          1  LIG1   0.0700
     39 H17       -20.7581    21.3879   -21.1188 H          1  LIG1   0.1200
     40 H18       -19.1980    22.2349   -22.8252 H          1  LIG1   0.1200
     41 H19       -17.7266    20.6724   -24.0321 H          1  LIG1   0.1200
     42 H20       -17.8150    18.2629   -23.5324 H          1  LIG1   0.1200
     43 H21       -19.3719    17.4165   -21.8227 H          1  LIG1   0.1200
     44 H22       -16.1899    14.2567   -15.0833 H          1  LIG1   0.4300
     45 H23       -14.7311    15.0413   -14.8023 H          1  LIG1   0.4500
@<TRIPOS>BOND
     1    1    2 1
     2    1   26 1
     3    1   27 1
     4    2   25 ar
     5    2    3 ar
     6    3    4 ar
     7    4    5 1
     8    4   21 ar
     9    5    6 1
    10    5   28 1
    11    6    7 1
    12    6   29 1
    13    6   30 1
    14    7    8 1
    15    7   13 1
    16    7    9 1
    17    9   10 1
    18    9   31 1
    19    9   32 1
    20   10   11 1
    21   10   33 1
    22   10   34 1
    23   11   12 1
    24   11   35 1
    25   11   36 1
    26   12   13 1
    27   12   37 1
    28   12   38 1
    29   13   14 1
    30   13   15 1
    31   15   20 ar
    32   15   16 ar
    33   16   17 ar
    34   16   39 1
    35   17   18 ar
    36   17   40 1
    37   18   19 ar
    38   18   41 1
    39   19   20 ar
    40   19   42 1
    41   20   43 1
    42   21   22 1
    43   21   23 ar
    44   23   24 1
    45   23   25 ar
    46   24   44 1
    47   24   45 1
##########                 Name:     ZINC000429271342
##########          Protonation:                 none
##########               SMILES:   CC[C@H]1CC[N@@H+]1[C@H](C)C(=O)NC1=CC=C(Br)C=C1
##########            Long Name:   NO_LONG_NAME
##########          FlexRecCode: 1
##########               Number:                 5667
##########   Ligand Source File: /nfs/db/export/3D/DG/ADMO/DGADMO.xall.db2.gz
##########                 Rank:                    1
##########               Setnum:                   80
##########             Matchnum:                    1
##########                Cloud:                    1
##########        Electrostatic:           -48.274734
##########                 Gist:             0.000000
##########        Van der Waals:           -24.452150
##########  Ligand Polar Desolv:            13.691655
########## Ligand Apolar Desolv:            -4.874102
##########      Internal Energy:             0.000000
##########      Receptor Energy:             0.000000
########## Receptor Desolvation:             0.000000
########## Receptor Hydrophobic:             0.000000
##########         Total Energy:           -63.909332
##########        Ligand Charge:             1.000000
##########            Arbitrary:    +999.9990
##########        Ligand Energy:             0.000000

@<TRIPOS>MOLECULE
 ZINC000429271342      none
   38    39     0     0     0



@<TRIPOS>ATOM
      1 C1        -22.3375    16.8576   -20.0927 C.3        1  LIG1  -0.1500
      2 C2        -21.0307    16.1759   -19.6822 C.3        1  LIG1  -0.1400
      3 C3        -20.2138    17.1258   -18.8041 C.3        1  LIG1   0.0300
      4 H1        -19.9593    18.0557   -19.3125 H          1  LIG1   0.1600
      5 C4        -20.8153    17.3371   -17.4076 C.3        1  LIG1  -0.1500
      6 C5        -19.3481    17.2957   -16.9582 C.3        1  LIG1   0.0100
      7 N1        -19.0603    16.4777   -18.1524 N.4        1  LIG1  -0.4000
      8 H2        -19.1891    15.4884   -18.0017 H          1  LIG1   0.4400
      9 C6        -17.7732    16.7981   -18.7836 C.3        1  LIG1   0.0100
     10 H3        -17.7592    17.8508   -19.0662 H          1  LIG1   0.1600
     11 C7        -17.5877    15.9324   -20.0316 C.3        1  LIG1  -0.1800
     12 C8        -16.6549    16.5240   -17.8114 C.2        1  LIG1   0.5100
     13 O1        -15.6330    17.1751   -17.8632 O.2        1  LIG1  -0.5000
     14 N2        -16.7904    15.5552   -16.8842 N.am       1  LIG1  -0.6500
     15 C9        -15.7517    15.3008   -15.9813 C.ar       1  LIG1   0.1400
     16 C10       -15.5638    14.0192   -15.4806 C.ar       1  LIG1  -0.1300
     17 C11       -14.5379    13.7707   -14.5900 C.ar       1  LIG1  -0.0700
     18 C12       -13.6977    14.7972   -14.1966 C.ar       1  LIG1  -0.0900
     19 Br1       -12.2936    14.4530   -12.9776 Br         1  LIG1  -0.0300
     20 C13       -13.8827    16.0750   -14.6939 C.ar       1  LIG1  -0.0700
     21 C14       -14.9038    16.3280   -15.5888 C.ar       1  LIG1  -0.1100
     22 H4        -22.9196    16.1810   -20.7183 H          1  LIG1   0.0800
     23 H5        -22.9105    17.1114   -19.2009 H          1  LIG1   0.0700
     24 H6        -22.1132    17.7664   -20.6512 H          1  LIG1   0.0700
     25 H7        -21.2549    15.2671   -19.1237 H          1  LIG1   0.0900
     26 H8        -20.4576    15.9223   -20.5741 H          1  LIG1   0.0900
     27 H9        -21.2969    18.3055   -17.2709 H          1  LIG1   0.1300
     28 H10       -21.4157    16.5011   -17.0491 H          1  LIG1   0.1300
     29 H11       -18.8616    18.2710   -16.9735 H          1  LIG1   0.1500
     30 H12       -19.1965    16.7630   -16.0193 H          1  LIG1   0.1400
     31 H13       -16.6325    16.1702   -20.5000 H          1  LIG1   0.1000
     32 H14       -17.6016    14.8798   -19.7489 H          1  LIG1   0.1100
     33 H15       -18.3966    16.1307   -20.7348 H          1  LIG1   0.0900
     34 H16       -17.6076    15.0345   -16.8427 H          1  LIG1   0.4200
     35 H17       -16.2195    13.2176   -15.7871 H          1  LIG1   0.1400
     36 H18       -14.3914    12.7742   -14.2001 H          1  LIG1   0.1500
     37 H19       -13.2257    16.8745   -14.3849 H          1  LIG1   0.1400
     38 H20       -15.0477    17.3257   -15.9766 H          1  LIG1   0.1400
@<TRIPOS>BOND
     1    1    2 1
     2    1   22 1
     3    1   23 1
     4    1   24 1
     5    2    3 1
     6    2   25 1
     7    2   26 1
     8    3    4 1
     9    3    7 1
    10    3    5 1
    11    5    6 1
    12    5   27 1
    13    5   28 1
    14    6    7 1
    15    6   29 1
    16    6   30 1
    17    7    8 1
    18    7    9 1
    19    9   10 1
    20    9   11 1
    21    9   12 1
    22   11   31 1
    23   11   32 1
    24   11   33 1
    25   12   13 2
    26   12   14 am
    27   14   15 1
    28   14   34 1
    29   15   21 ar
    30   15   16 ar
    31   16   17 ar
    32   16   35 1
    33   17   18 ar
    34   17   36 1
    35   18   19 1
    36   18   20 ar
    37   20   21 ar
    38   20   37 1
    39   21   38 1
##########                 Name:     ZINC000352657646
##########          Protonation:                 none
##########               SMILES:   CCOC(=O)C1=C(C[N@H+](C)[C@@H]2CCC[C@@H]2O)OC(C2=CC=CC=C2)=N1
##########            Long Name:   NO_LONG_NAME
##########          FlexRecCode: 1
##########               Number:                 9067
##########   Ligand Source File: /nfs/db/export/3D/EF/ADRO/EFADRO.xbyb.db2.gz
##########                 Rank:                    1
##########               Setnum:                   47
##########             Matchnum:                    1
##########                Cloud:                    1
##########        Electrostatic:           -49.081749
##########                 Gist:             0.000000
##########        Van der Waals:           -30.722874
##########  Ligand Polar Desolv:            12.441827
########## Ligand Apolar Desolv:            -3.425081
##########      Internal Energy:             0.000000
##########      Receptor Energy:             0.000000
########## Receptor Desolvation:             0.000000
########## Receptor Hydrophobic:             0.000000
##########         Total Energy:           -70.787880
##########        Ligand Charge:             1.000000
##########            Arbitrary:    +999.9990
##########        Ligand Energy:             0.000000

@<TRIPOS>MOLECULE
 ZINC000352657646      none
   50    52     0     0     0



@<TRIPOS>ATOM
      1 C1        -12.9312    20.9468   -17.5072 C.3        1  LIG1  -0.1600
      2 C2        -13.5272    20.7721   -16.1090 C.3        1  LIG1   0.0600
      3 O1        -13.7361    19.3597   -15.8450 O.3        1  LIG1  -0.3200
      4 C3        -14.9301    18.8418   -16.1956 C.2        1  LIG1   0.5500
      5 O2        -15.7734    19.5514   -16.7078 O.2        1  LIG1  -0.5100
      6 C4        -15.2128    17.4156   -15.9580 C.2        1  LIG1   0.0200
      7 C5        -16.0314    16.6189   -16.7016 C.2        1  LIG1  -0.0500
      8 C6        -16.8165    17.0314   -17.9201 C.3        1  LIG1   0.0800
      9 N1        -17.5728    15.8792   -18.4284 N.4        1  LIG1  -0.3700
     10 H1        -17.9488    15.3549   -17.6527 H          1  LIG1   0.4300
     11 C7        -16.6814    15.0172   -19.2160 C.3        1  LIG1  -0.0500
     12 C8        -18.6733    16.3525   -19.2787 C.3        1  LIG1   0.0300
     13 H2        -19.0135    15.5480   -19.9308 H          1  LIG1   0.1500
     14 C9        -18.2082    17.5566   -20.1233 C.3        1  LIG1  -0.1500
     15 C10       -19.4458    18.4867   -20.1725 C.3        1  LIG1  -0.1200
     16 C11       -20.0388    18.3421   -18.7491 C.3        1  LIG1  -0.1600
     17 C12       -19.8377    16.8507   -18.4049 C.3        1  LIG1   0.0900
     18 H3        -20.7438    16.2893   -18.6329 H          1  LIG1   0.1000
     19 O3        -19.5090    16.7076   -17.0216 O.3        1  LIG1  -0.5800
     20 O4        -16.0069    15.3978   -16.1445 O.3        1  LIG1  -0.1700
     21 C13       -15.1892    15.4396   -15.0777 C.2        1  LIG1   0.3100
     22 C14       -14.8843    14.3008   -14.1848 C.ar       1  LIG1  -0.0600
     23 C15       -14.0206    14.4710   -13.1021 C.ar       1  LIG1  -0.0800
     24 C16       -13.7406    13.4047   -12.2726 C.ar       1  LIG1  -0.1200
     25 C17       -14.3137    12.1686   -12.5127 C.ar       1  LIG1  -0.0800
     26 C18       -15.1710    11.9932   -13.5843 C.ar       1  LIG1  -0.1200
     27 C19       -15.4637    13.0529   -14.4181 C.ar       1  LIG1  -0.0600
     28 N2        -14.7016    16.6485   -14.9605 N.2        1  LIG1  -0.4400
     29 H4        -12.7743    22.0072   -17.7054 H          1  LIG1   0.0900
     30 H5        -11.9777    20.4217   -17.5640 H          1  LIG1   0.0700
     31 H6        -13.6168    20.5363   -18.2485 H          1  LIG1   0.0700
     32 H7        -12.8417    21.1828   -15.3679 H          1  LIG1   0.0800
     33 H8        -14.4807    21.2972   -16.0522 H          1  LIG1   0.0800
     34 H9        -17.5078    17.8308   -17.6535 H          1  LIG1   0.1500
     35 H10       -16.1318    17.3851   -18.6908 H          1  LIG1   0.1700
     36 H11       -17.2427    14.1623   -19.5931 H          1  LIG1   0.1500
     37 H12       -16.2754    15.5835   -20.0541 H          1  LIG1   0.1300
     38 H13       -15.8648    14.6661   -18.5852 H          1  LIG1   0.1000
     39 H14       -17.3711    18.0607   -19.6405 H          1  LIG1   0.0900
     40 H15       -17.9329    17.2345   -21.1277 H          1  LIG1   0.1100
     41 H16       -19.1469    19.5175   -20.3637 H          1  LIG1   0.0900
     42 H17       -20.1570    18.1440   -20.9240 H          1  LIG1   0.0900
     43 H18       -19.4973    18.9730   -18.0442 H          1  LIG1   0.0900
     44 H19       -21.0996    18.5932   -18.7504 H          1  LIG1   0.0900
     45 H20       -19.3271    15.7968   -16.7527 H          1  LIG1   0.4100
     46 H21       -13.5719    15.4353   -12.9141 H          1  LIG1   0.1300
     47 H22       -13.0722    13.5351   -11.4344 H          1  LIG1   0.1400
     48 H23       -14.0909    11.3368   -11.8608 H          1  LIG1   0.1400
     49 H24       -15.6149    11.0257   -13.7666 H          1  LIG1   0.1400
     50 H25       -16.1332    12.9149   -15.2541 H          1  LIG1   0.1400
@<TRIPOS>BOND
     1    1    2 1
     2    1   29 1
     3    1   30 1
     4    1   31 1
     5    2    3 1
     6    2   32 1
     7    2   33 1
     8    3    4 1
     9    4    5 2
    10    4    6 1
    11    6   28 1
    12    6    7 2
    13    7    8 1
    14    7   20 1
    15    8    9 1
    16    8   34 1
    17    8   35 1
    18    9   10 1
    19    9   11 1
    20    9   12 1
    21   11   36 1
    22   11   37 1
    23   11   38 1
    24   12   13 1
    25   12   17 1
    26   12   14 1
    27   14   15 1
    28   14   39 1
    29   14   40 1
    30   15   16 1
    31   15   41 1
    32   15   42 1
    33   16   17 1
    34   16   43 1
    35   16   44 1
    36   17   18 1
    37   17   19 1
    38   19   45 1
    39   20   21 1
    40   21   22 1
    41   21   28 2
    42   22   27 ar
    43   22   23 ar
    44   23   24 ar
    45   23   46 1
    46   24   25 ar
    47   24   47 1
    48   25   26 ar
    49   25   48 1
    50   26   27 ar
    51   26   49 1
    52   27   50 1
##########                 Name:     ZINC000128122168
##########          Protonation:                 none
##########               SMILES:   Cn1ccnc1-c1csc(NC(=O)[C@@H](C2CC2)[NH+]2CCCC2)n1
##########            Long Name:   NO_LONG_NAME
##########          FlexRecCode: 1
##########               Number:                 9005
##########   Ligand Source File: /nfs/db/export/3D/EE/ADRO/EEADRO.xckm.db2.gz
##########                 Rank:                    1
##########               Setnum:                    5
##########             Matchnum:                    1
##########                Cloud:                    1
##########        Electrostatic:           -43.283813
##########                 Gist:             0.000000
##########        Van der Waals:           -32.241547
##########  Ligand Polar Desolv:            16.713362
########## Ligand Apolar Desolv:            -5.236485
##########      Internal Energy:             0.000000
##########      Receptor Energy:             0.000000
########## Receptor Desolvation:             0.000000
########## Receptor Hydrophobic:             0.000000
##########         Total Energy:           -64.048485
##########        Ligand Charge:             1.000000
##########            Arbitrary:    +999.9990
##########        Ligand Energy:             0.000000

@<TRIPOS>MOLECULE
 ZINC000128122168      none
   45    48     0     0     0



@<TRIPOS>ATOM
      1 C1        -16.3291    12.2069   -14.6869 C.3        1  LIG1   0.0700
      2 N1        -15.1788    12.5991   -13.8688 N.pl3      1  LIG1  -0.4500
      3 C2        -14.5337    11.8212   -12.9416 C.2        1  LIG1  -0.0400
      4 C3        -13.5379    12.5670   -12.4248 C.2        1  LIG1  -0.0200
      5 N2        -13.5625    13.7707   -13.0117 N.2        1  LIG1  -0.4600
      6 C4        -14.5418    13.8060   -13.8889 C.2        1  LIG1   0.2500
      7 C5        -14.8977    14.9581   -14.7427 C.2        1  LIG1   0.1600
      8 C6        -14.2150    16.1196   -14.7098 C.2        1  LIG1  -0.2200
      9 S1        -14.9503    17.2251   -15.8680 S.3        1  LIG1   0.2300
     10 C7        -16.1334    15.9939   -16.2976 C.2        1  LIG1   0.2400
     11 N3        -17.1441    16.1470   -17.2386 N.am       1  LIG1  -0.6000
     12 C8        -17.2773    17.3134   -17.9007 C.2        1  LIG1   0.5100
     13 O1        -16.5150    18.2293   -17.6750 O.2        1  LIG1  -0.4800
     14 C9        -18.3736    17.4795   -18.9212 C.3        1  LIG1   0.0600
     15 H1        -18.6814    18.5246   -18.9570 H          1  LIG1   0.1600
     16 C10       -17.8587    17.0522   -20.2972 C.3        1  LIG1  -0.2100
     17 C11       -18.4367    17.7661   -21.5208 C.3        1  LIG1  -0.1500
     18 C12       -17.0023    18.0547   -21.0735 C.3        1  LIG1  -0.1500
     19 N4        -19.5219    16.6434   -18.5469 N.4        1  LIG1  -0.3800
     20 H2        -19.2488    15.6727   -18.5106 H          1  LIG1   0.4400
     21 C13       -20.0613    17.0733   -17.2315 C.3        1  LIG1  -0.0200
     22 C14       -21.5136    16.5340   -17.2504 C.3        1  LIG1  -0.1400
     23 C15       -21.9416    16.7446   -18.7209 C.3        1  LIG1  -0.1400
     24 C16       -20.6241    16.8272   -19.5158 C.3        1  LIG1   0.0000
     25 N5        -15.9133    14.9215   -15.6049 N.2        1  LIG1  -0.4800
     26 H3        -16.6137    11.1827   -14.4461 H          1  LIG1   0.0800
     27 H4        -17.1658    12.8745   -14.4811 H          1  LIG1   0.0800
     28 H5        -16.0635    12.2718   -15.7421 H          1  LIG1   0.1000
     29 H6        -14.7781    10.8034   -12.6756 H          1  LIG1   0.1800
     30 H7        -12.8386    12.2483   -11.6660 H          1  LIG1   0.1800
     31 H8        -13.3638    16.3357   -14.0812 H          1  LIG1   0.2000
     32 H9        -17.7538    15.4145   -17.4191 H          1  LIG1   0.4300
     33 H10       -17.6134    15.9951   -20.3999 H          1  LIG1   0.1400
     34 H11       -18.5722    17.1785   -22.4289 H          1  LIG1   0.1200
     35 H12       -19.1840    18.5400   -21.3455 H          1  LIG1   0.1100
     36 H13       -16.8059    19.0186   -20.6040 H          1  LIG1   0.1000
     37 H14       -16.1940    17.6570   -21.6873 H          1  LIG1   0.1200
     38 H15       -19.4941    16.6225   -16.4171 H          1  LIG1   0.1400
     39 H16       -20.0557    18.1603   -17.1499 H          1  LIG1   0.1300
     40 H17       -21.5355    15.4757   -16.9902 H          1  LIG1   0.1000
     41 H18       -22.1482    17.1108   -16.5776 H          1  LIG1   0.1200
     42 H19       -22.5383    15.9004   -19.0660 H          1  LIG1   0.1100
     43 H20       -22.5041    17.6729   -18.8220 H          1  LIG1   0.1100
     44 H21       -20.5389    17.8035   -19.9930 H          1  LIG1   0.1300
     45 H22       -20.5946    16.0392   -20.2684 H          1  LIG1   0.1400
@<TRIPOS>BOND
     1    1    2 1
     2    1   26 1
     3    1   27 1
     4    1   28 1
     5    2    6 1
     6    2    3 1
     7    3    4 2
     8    3   29 1
     9    4    5 1
    10    4   30 1
    11    5    6 2
    12    6    7 1
    13    7   25 1
    14    7    8 2
    15    8    9 1
    16    8   31 1
    17    9   10 1
    18   10   11 1
    19   10   25 2
    20   11   12 am
    21   11   32 1
    22   12   13 2
    23   12   14 1
    24   14   15 1
    25   14   16 1
    26   14   19 1
    27   16   18 1
    28   16   17 1
    29   16   33 1
    30   17   18 1
    31   17   34 1
    32   17   35 1
    33   18   36 1
    34   18   37 1
    35   19   20 1
    36   19   24 1
    37   19   21 1
    38   21   22 1
    39   21   38 1
    40   21   39 1
    41   22   23 1
    42   22   40 1
    43   22   41 1
    44   23   24 1
    45   23   42 1
    46   23   43 1
    47   24   44 1
    48   24   45 1
##########                 Name:     ZINC000085334606
##########          Protonation:                 none
##########               SMILES:   O[C@@H]1CC2=CC=CC=C2[C@@H]1[NH2+]CC1=CC=C(C2=CC=C(F)C=C2)O1
##########            Long Name:   NO_LONG_NAME
##########          FlexRecCode: 1
##########               Number:                11030
##########   Ligand Source File: /nfs/db/export/3D/DH/ADRO/DHADRO.xaf.db2.gz
##########                 Rank:                    1
##########               Setnum:                  122
##########             Matchnum:                    1
##########                Cloud:                    1
##########        Electrostatic:           -33.328060
##########                 Gist:             0.000000
##########        Van der Waals:           -34.638851
##########  Ligand Polar Desolv:            10.085507
########## Ligand Apolar Desolv:            -6.119638
##########      Internal Energy:             0.000000
##########      Receptor Energy:             0.000000
########## Receptor Desolvation:             0.000000
########## Receptor Hydrophobic:             0.000000
##########         Total Energy:           -64.001045
##########        Ligand Charge:             1.000000
##########            Arbitrary:    +999.9990
##########        Ligand Energy:             0.000000

@<TRIPOS>MOLECULE
 ZINC000085334606      none
   43    46     0     0     0



@<TRIPOS>ATOM
      1 O1        -17.0846    18.0216   -20.6597 O.3        1  LIG1  -0.5700
      2 C1        -18.3392    17.5100   -21.1139 C.3        1  LIG1   0.1000
      3 H1        -18.2618    17.1554   -22.1417 H          1  LIG1   0.1200
      4 C2        -19.4466    18.5771   -20.9834 C.3        1  LIG1  -0.1300
      5 C3        -20.6958    17.8082   -20.6105 C.ar       1  LIG1  -0.0600
      6 C4        -22.0286    18.1784   -20.6700 C.ar       1  LIG1  -0.1000
      7 C5        -23.0137    17.2964   -20.2695 C.ar       1  LIG1  -0.0800
      8 C6        -22.6686    16.0403   -19.8078 C.ar       1  LIG1  -0.1100
      9 C7        -21.3393    15.6691   -19.7475 C.ar       1  LIG1  -0.0800
     10 C8        -20.3506    16.5516   -20.1484 C.ar       1  LIG1  -0.1700
     11 C9        -18.8432    16.3870   -20.1826 C.3        1  LIG1   0.0900
     12 H2        -18.5784    15.4096   -20.5860 H          1  LIG1   0.1500
     13 N1        -18.2820    16.5502   -18.8348 N.4        1  LIG1  -0.5000
     14 H3        -18.2756    17.5290   -18.5896 H          1  LIG1   0.4400
     15 H4        -18.8466    16.0411   -18.1715 H          1  LIG1   0.4300
     16 C10       -16.9084    16.0302   -18.8100 C.3        1  LIG1   0.0900
     17 C11       -16.3328    16.1976   -17.4274 C.2        1  LIG1  -0.1100
     18 C12       -16.4327    17.3029   -16.6636 C.2        1  LIG1  -0.1300
     19 C13       -15.7584    17.0323   -15.4559 C.2        1  LIG1  -0.2000
     20 C14       -15.2793    15.7636   -15.5504 C.2        1  LIG1   0.1000
     21 C15       -14.5030    15.0501   -14.5148 C.ar       1  LIG1  -0.0600
     22 C16       -14.9875    13.8581   -13.9733 C.ar       1  LIG1  -0.0500
     23 C17       -14.2588    13.1961   -13.0075 C.ar       1  LIG1  -0.1500
     24 C18       -13.0477    13.7131   -12.5737 C.ar       1  LIG1   0.1300
     25 F1        -12.3380    13.0609   -11.6272 F          1  LIG1  -0.1300
     26 C19       -12.5621    14.8952   -13.1085 C.ar       1  LIG1  -0.1500
     27 C20       -13.2800    15.5626   -14.0786 C.ar       1  LIG1  -0.0600
     28 O2        -15.6399    15.2677   -16.7497 O.3        1  LIG1  -0.1600
     29 H5        -17.1122    18.3973   -19.7691 H          1  LIG1   0.4200
     30 H6        -19.1935    19.2909   -20.1994 H          1  LIG1   0.1000
     31 H7        -19.5891    19.0924   -21.9334 H          1  LIG1   0.1100
     32 H8        -22.2990    19.1599   -21.0305 H          1  LIG1   0.1400
     33 H9        -24.0524    17.5884   -20.3169 H          1  LIG1   0.1400
     34 H10       -23.4373    15.3497   -19.4939 H          1  LIG1   0.1400
     35 H11       -21.0703    14.6876   -19.3862 H          1  LIG1   0.1300
     36 H12       -16.9154    14.9729   -19.0751 H          1  LIG1   0.1600
     37 H13       -16.2986    16.5803   -19.5266 H          1  LIG1   0.1500
     38 H14       -16.9343    18.2223   -16.9270 H          1  LIG1   0.1600
     39 H15       -15.6441    17.7034   -14.6174 H          1  LIG1   0.1700
     40 H16       -15.9312    13.4552   -14.3100 H          1  LIG1   0.1400
     41 H17       -14.6325    12.2738   -12.5880 H          1  LIG1   0.1500
     42 H18       -11.6177    15.2929   -12.7674 H          1  LIG1   0.1500
     43 H19       -12.9004    16.4842   -14.4946 H          1  LIG1   0.1400
@<TRIPOS>BOND
     1    1    2 1
     2    1   29 1
     3    2    3 1
     4    2   11 1
     5    2    4 1
     6    4    5 1
     7    4   30 1
     8    4   31 1
     9    5   10 ar
    10    5    6 ar
    11    6    7 ar
    12    6   32 1
    13    7    8 ar
    14    7   33 1
    15    8    9 ar
    16    8   34 1
    17    9   10 ar
    18    9   35 1
    19   10   11 1
    20   11   12 1
    21   11   13 1
    22   13   14 1
    23   13   15 1
    24   13   16 1
    25   16   17 1
    26   16   36 1
    27   16   37 1
    28   17   28 1
    29   17   18 2
    30   18   19 1
    31   18   38 1
    32   19   20 2
    33   19   39 1
    34   20   21 1
    35   20   28 1
    36   21   27 ar
    37   21   22 ar
    38   22   23 ar
    39   22   40 1
    40   23   24 ar
    41   23   41 1
    42   24   25 1
    43   24   26 ar
    44   26   27 ar
    45   26   42 1
    46   27   43 1
##########                 Name:     ZINC000544192609
##########          Protonation:                 none
##########               SMILES:   ClC1=CC=C(N2C=C(C[NH2+][C@@H]3CC=CCC3)N=N2)C=C1Cl
##########            Long Name:   NO_LONG_NAME
##########          FlexRecCode: 1
##########               Number:                 6314
##########   Ligand Source File: /nfs/db/export/3D/DH/ADRO/DHADRO.xbt.db2.gz
##########                 Rank:                    1
##########               Setnum:                   45
##########             Matchnum:                    1
##########                Cloud:                    1
##########        Electrostatic:           -42.790779
##########                 Gist:             0.000000
##########        Van der Waals:           -31.686340
##########  Ligand Polar Desolv:            15.316927
########## Ligand Apolar Desolv:            -5.629895
##########      Internal Energy:             0.000000
##########      Receptor Energy:             0.000000
########## Receptor Desolvation:             0.000000
########## Receptor Hydrophobic:             0.000000
##########         Total Energy:           -64.790085
##########        Ligand Charge:             1.000000
##########            Arbitrary:    +999.9990
##########        Ligand Energy:             0.000000

@<TRIPOS>MOLECULE
 ZINC000544192609      none
   38    40     0     0     0



@<TRIPOS>ATOM
      1 Cl1       -12.6188    13.1194   -12.3420 Cl         1  LIG1  -0.0100
      2 C1        -13.6071    14.2031   -13.2707 C.ar       1  LIG1  -0.0100
      3 C2        -13.2137    15.5176   -13.4464 C.ar       1  LIG1  -0.0700
      4 C3        -13.9983    16.3819   -14.1855 C.ar       1  LIG1  -0.0700
      5 C4        -15.1824    15.9309   -14.7521 C.ar       1  LIG1   0.1100
      6 N1        -15.9799    16.8070   -15.5031 N.pl3      1  LIG1  -0.2300
      7 C5        -16.7923    16.4593   -16.5382 C.2        1  LIG1   0.0000
      8 C6        -17.3664    17.6083   -16.9658 C.2        1  LIG1  -0.1000
      9 C7        -18.3519    17.7571   -18.0962 C.3        1  LIG1   0.1000
     10 N2        -19.3717    16.7043   -17.9984 N.4        1  LIG1  -0.5100
     11 H1        -18.9280    15.7998   -18.0560 H          1  LIG1   0.4300
     12 H2        -19.8561    16.7858   -17.1170 H          1  LIG1   0.4300
     13 C8        -20.3325    16.8493   -19.1002 C.3        1  LIG1   0.0200
     14 H3        -19.8121    16.7616   -20.0540 H          1  LIG1   0.1500
     15 C9        -21.0153    18.2158   -19.0107 C.3        1  LIG1  -0.1100
     16 C10       -22.1771    18.2761   -19.9587 C.2        1  LIG1  -0.1600
     17 C11       -22.7333    17.2357   -20.4914 C.2        1  LIG1  -0.1400
     18 C12       -22.2877    15.8243   -20.2432 C.3        1  LIG1  -0.0900
     19 C13       -21.4053    15.7580   -18.9959 C.3        1  LIG1  -0.1400
     20 N3        -16.8879    18.5856   -16.1879 N.2        1  LIG1  -0.2300
     21 N4        -16.0749    18.0790   -15.3295 N.2        1  LIG1  -0.0400
     22 C14       -15.5760    14.6116   -14.5749 C.ar       1  LIG1  -0.0900
     23 C15       -14.7858    13.7489   -13.8395 C.ar       1  LIG1  -0.0200
     24 Cl2       -15.2765    12.0985   -13.6175 Cl         1  LIG1  -0.0100
     25 H4        -12.2926    15.8686   -13.0054 H          1  LIG1   0.1700
     26 H5        -13.6904    17.4081   -14.3219 H          1  LIG1   0.1600
     27 H6        -16.9472    15.4679   -16.9377 H          1  LIG1   0.2100
     28 H7        -18.8313    18.7341   -18.0340 H          1  LIG1   0.1500
     29 H8        -17.8289    17.6689   -19.0483 H          1  LIG1   0.1500
     30 H9        -21.3709    18.3759   -17.9928 H          1  LIG1   0.1000
     31 H10       -20.2984    18.9956   -19.2677 H          1  LIG1   0.1000
     32 H11       -22.5741    19.2481   -20.2120 H          1  LIG1   0.1200
     33 H12       -23.5704    17.3932   -21.1555 H          1  LIG1   0.1200
     34 H13       -23.1621    15.1889   -20.1027 H          1  LIG1   0.1000
     35 H14       -21.7195    15.4685   -21.1027 H          1  LIG1   0.0900
     36 H15       -20.9331    14.7776   -18.9330 H          1  LIG1   0.0900
     37 H16       -22.0125    15.9332   -18.1078 H          1  LIG1   0.0900
     38 H17       -16.4972    14.2586   -15.0146 H          1  LIG1   0.1500
@<TRIPOS>BOND
     1    1    2 1
     2    2   23 ar
     3    2    3 ar
     4    3    4 ar
     5    3   25 1
     6    4    5 ar
     7    4   26 1
     8    5    6 1
     9    5   22 ar
    10    6   21 1
    11    6    7 1
    12    7    8 2
    13    7   27 1
    14    8    9 1
    15    8   20 1
    16    9   10 1
    17    9   28 1
    18    9   29 1
    19   10   11 1
    20   10   12 1
    21   10   13 1
    22   13   14 1
    23   13   19 1
    24   13   15 1
    25   15   16 1
    26   15   30 1
    27   15   31 1
    28   16   17 2
    29   16   32 1
    30   17   18 1
    31   17   33 1
    32   18   19 1
    33   18   34 1
    34   18   35 1
    35   19   36 1
    36   19   37 1
    37   20   21 2
    38   22   23 ar
    39   22   38 1
    40   23   24 1
##########                 Name:     ZINC000344040091
##########          Protonation:                 none
##########               SMILES:   CC1=CC2=CC(CNC(=O)C[NH+]3[C@@H](C)CC[C@@H]3C)=CC=C2N1
##########            Long Name:   NO_LONG_NAME
##########          FlexRecCode: 1
##########               Number:                10579
##########   Ligand Source File: /nfs/db/export/3D/CF/ADRO/CFADRO.xaid.db2.gz
##########                 Rank:                    1
##########               Setnum:                   44
##########             Matchnum:                    1
##########                Cloud:                    1
##########        Electrostatic:           -40.842972
##########                 Gist:             0.000000
##########        Van der Waals:           -32.838497
##########  Ligand Polar Desolv:            13.535587
########## Ligand Apolar Desolv:            -4.685051
##########      Internal Energy:             0.000000
##########      Receptor Energy:             0.000000
########## Receptor Desolvation:             0.000000
########## Receptor Hydrophobic:             0.000000
##########         Total Energy:           -64.830933
##########        Ligand Charge:             1.000000
##########            Arbitrary:    +999.9990
##########        Ligand Energy:             0.000000

@<TRIPOS>MOLECULE
 ZINC000344040091      none
   48    50     0     0     0



@<TRIPOS>ATOM
      1 C1        -14.7401    10.3803   -11.9923 C.3        1  LIG1  -0.1000
      2 C2        -14.7610    11.6963   -12.7263 C.2        1  LIG1   0.0900
      3 C3        -15.4689    11.9467   -13.8389 C.2        1  LIG1  -0.2100
      4 C4        -15.2010    13.3376   -14.2129 C.ar       1  LIG1  -0.1100
      5 C5        -15.6329    14.1632   -15.2524 C.ar       1  LIG1  -0.0400
      6 C6        -15.1859    15.4526   -15.3250 C.ar       1  LIG1  -0.1500
      7 C7        -15.6526    16.3433   -16.4474 C.3        1  LIG1   0.1700
      8 N1        -17.0994    16.1930   -16.6209 N.am       1  LIG1  -0.7000
      9 C8        -17.8347    17.2269   -17.0759 C.2        1  LIG1   0.5000
     10 O1        -17.2984    18.2817   -17.3418 O.2        1  LIG1  -0.5300
     11 C9        -19.3230    17.0724   -17.2543 C.3        1  LIG1  -0.0400
     12 N2        -19.6060    16.5922   -18.6134 N.4        1  LIG1  -0.3700
     13 H1        -19.1574    15.7003   -18.7596 H          1  LIG1   0.4300
     14 C10       -21.0623    16.4510   -18.7965 C.3        1  LIG1   0.0300
     15 H2        -21.3077    15.4157   -19.0329 H          1  LIG1   0.1400
     16 C11       -21.7912    16.8804   -17.5217 C.3        1  LIG1  -0.1900
     17 C12       -21.4664    17.3675   -19.9704 C.3        1  LIG1  -0.1400
     18 C13       -20.1374    17.5416   -20.7515 C.3        1  LIG1  -0.1400
     19 C14       -19.1028    17.5701   -19.6015 C.3        1  LIG1   0.0200
     20 H3        -19.0529    18.5657   -19.1607 H          1  LIG1   0.1400
     21 C15       -17.7251    17.1455   -20.1137 C.3        1  LIG1  -0.1800
     22 C16       -14.3061    15.9484   -14.3730 C.ar       1  LIG1  -0.0800
     23 C17       -13.8672    15.1508   -13.3387 C.ar       1  LIG1  -0.1200
     24 C18       -14.3088    13.8353   -13.2455 C.ar       1  LIG1   0.1100
     25 N3        -14.0659    12.8145   -12.3538 N.pl3      1  LIG1  -0.5900
     26 H4        -15.3826     9.6664   -12.5076 H          1  LIG1   0.0800
     27 H5        -13.7203     9.9965   -11.9635 H          1  LIG1   0.0900
     28 H6        -15.1021    10.5261   -10.9745 H          1  LIG1   0.0700
     29 H7        -16.1133    11.2541   -14.3599 H          1  LIG1   0.1500
     30 H8        -16.3176    13.7842   -15.9967 H          1  LIG1   0.1200
     31 H9        -15.4213    17.3812   -16.2077 H          1  LIG1   0.0900
     32 H10       -15.1449    16.0617   -17.3698 H          1  LIG1   0.0900
     33 H11       -17.5285    15.3493   -16.4082 H          1  LIG1   0.4100
     34 H12       -19.7032    16.3537   -16.5284 H          1  LIG1   0.1600
     35 H13       -19.8093    18.0357   -17.1006 H          1  LIG1   0.1600
     36 H14       -22.8666    16.7734   -17.6643 H          1  LIG1   0.0800
     37 H15       -21.4707    16.2519   -16.6907 H          1  LIG1   0.1100
     38 H16       -21.5557    17.9216   -17.3017 H          1  LIG1   0.0900
     39 H17       -22.2196    16.8857   -20.5940 H          1  LIG1   0.1100
     40 H18       -21.8261    18.3285   -19.6029 H          1  LIG1   0.1000
     41 H19       -19.9615    16.6959   -21.4164 H          1  LIG1   0.1000
     42 H20       -20.1302    18.4801   -21.3058 H          1  LIG1   0.1200
     43 H21       -17.3671    17.8748   -20.8404 H          1  LIG1   0.1100
     44 H22       -17.0272    17.0927   -19.2781 H          1  LIG1   0.0800
     45 H23       -17.7994    16.1667   -20.5875 H          1  LIG1   0.0800
     46 H24       -13.9617    16.9696   -14.4438 H          1  LIG1   0.1300
     47 H25       -13.1822    15.5458   -12.6030 H          1  LIG1   0.1300
     48 H26       -13.4873    12.8783   -11.5779 H          1  LIG1   0.4200
@<TRIPOS>BOND
     1    1    2 1
     2    1   26 1
     3    1   27 1
     4    1   28 1
     5    2   25 1
     6    2    3 2
     7    3    4 1
     8    3   29 1
     9    4   24 ar
    10    4    5 ar
    11    5    6 ar
    12    5   30 1
    13    6    7 1
    14    6   22 ar
    15    7    8 1
    16    7   31 1
    17    7   32 1
    18    8    9 am
    19    8   33 1
    20    9   10 2
    21    9   11 1
    22   11   12 1
    23   11   34 1
    24   11   35 1
    25   12   13 1
    26   12   19 1
    27   12   14 1
    28   14   15 1
    29   14   16 1
    30   14   17 1
    31   16   36 1
    32   16   37 1
    33   16   38 1
    34   17   18 1
    35   17   39 1
    36   17   40 1
    37   18   19 1
    38   18   41 1
    39   18   42 1
    40   19   20 1
    41   19   21 1
    42   21   43 1
    43   21   44 1
    44   21   45 1
    45   22   23 ar
    46   22   46 1
    47   23   24 ar
    48   23   47 1
    49   24   25 1
    50   25   48 1
##########                 Name:     ZINC000355327118
##########          Protonation:                 none
##########               SMILES:   C[N@H+]1CCCC(C)(C)[C@H]1CNC(=O)C1=CN=NC(C2=CC=CC=C2)=C1
##########            Long Name:   NO_LONG_NAME
##########          FlexRecCode: 1
##########               Number:                 5107
##########   Ligand Source File: /nfs/db/export/3D/EF/ADMO/EFADMO.xbrz.db2.gz
##########                 Rank:                    1
##########               Setnum:                   28
##########             Matchnum:                    1
##########                Cloud:                    1
##########        Electrostatic:           -50.522625
##########                 Gist:             0.000000
##########        Van der Waals:           -34.607422
##########  Ligand Polar Desolv:            23.311069
########## Ligand Apolar Desolv:            -5.845060
##########      Internal Energy:             0.000000
##########      Receptor Energy:             0.000000
########## Receptor Desolvation:             0.000000
########## Receptor Hydrophobic:             0.000000
##########         Total Energy:           -67.664040
##########        Ligand Charge:             1.000000
##########            Arbitrary:    +999.9990
##########        Ligand Energy:             0.000000

@<TRIPOS>MOLECULE
 ZINC000355327118      none
   52    54     0     0     0



@<TRIPOS>ATOM
      1 C1        -21.1482    16.6505   -16.9389 C.3        1  LIG1  -0.0700
      2 N1        -20.7116    15.9771   -18.1663 N.4        1  LIG1  -0.3700
      3 H1        -19.9386    15.3491   -17.8828 H          1  LIG1   0.4200
      4 C2        -21.7633    15.1149   -18.6922 C.3        1  LIG1  -0.0100
      5 C3        -22.8684    15.9345   -19.3552 C.3        1  LIG1  -0.1400
      6 C4        -22.2641    16.7200   -20.5185 C.3        1  LIG1  -0.1200
      7 C5        -21.1544    17.6386   -20.0147 C.3        1  LIG1  -0.0600
      8 C6        -20.3972    18.1826   -21.2453 C.3        1  LIG1  -0.1500
      9 C7        -21.7604    18.8378   -19.2805 C.3        1  LIG1  -0.1700
     10 C8        -20.1557    16.9063   -19.1341 C.3        1  LIG1   0.0200
     11 H2        -19.4731    16.3406   -19.7962 H          1  LIG1   0.1400
     12 C9        -19.2933    17.9436   -18.3939 C.3        1  LIG1   0.0900
     13 N2        -18.2083    17.2603   -17.6851 N.am       1  LIG1  -0.7500
     14 C10       -17.3209    17.9729   -16.9632 C.2        1  LIG1   0.5800
     15 O1        -17.4208    19.1823   -16.9003 O.2        1  LIG1  -0.4900
     16 C11       -16.2239    17.2820   -16.2464 C.ar       1  LIG1  -0.1400
     17 C12       -15.0167    17.9330   -15.9739 C.ar       1  LIG1   0.0500
     18 N3        -14.0560    17.2949   -15.3334 N.ar       1  LIG1  -0.2200
     19 N4        -14.1793    16.0799   -14.9408 N.ar       1  LIG1  -0.2100
     20 C13       -15.2836    15.3744   -15.1500 C.ar       1  LIG1   0.1300
     21 C14       -15.3726    13.9722   -14.6738 C.ar       1  LIG1  -0.0700
     22 C15       -16.1553    13.0479   -15.3631 C.ar       1  LIG1  -0.0900
     23 C16       -16.2346    11.7448   -14.9155 C.ar       1  LIG1  -0.1200
     24 C17       -15.5393    11.3556   -13.7848 C.ar       1  LIG1  -0.0900
     25 C18       -14.7612    12.2689   -13.0965 C.ar       1  LIG1  -0.1200
     26 C19       -14.6694    13.5731   -13.5388 C.ar       1  LIG1  -0.0700
     27 C20       -16.3636    15.9587   -15.8148 C.ar       1  LIG1  -0.0400
     28 H3        -21.9673    17.3315   -17.1699 H          1  LIG1   0.1300
     29 H4        -21.4867    15.9067   -16.2174 H          1  LIG1   0.1300
     30 H5        -20.3155    17.2131   -16.5173 H          1  LIG1   0.1300
     31 H6        -21.3380    14.4256   -19.4274 H          1  LIG1   0.1300
     32 H7        -22.1943    14.5253   -17.8777 H          1  LIG1   0.1400
     33 H8        -23.6335    15.2535   -19.7434 H          1  LIG1   0.1100
     34 H9        -23.3317    16.6063   -18.6389 H          1  LIG1   0.0900
     35 H10       -21.8554    16.0227   -21.2536 H          1  LIG1   0.0800
     36 H11       -23.0438    17.3174   -20.9968 H          1  LIG1   0.1000
     37 H12       -19.5960    18.8440   -20.9158 H          1  LIG1   0.0800
     38 H13       -19.9735    17.3509   -21.8081 H          1  LIG1   0.0700
     39 H14       -21.0878    18.7370   -21.8809 H          1  LIG1   0.0700
     40 H15       -20.9611    19.4877   -18.9246 H          1  LIG1   0.0600
     41 H16       -22.4044    19.3937   -19.9621 H          1  LIG1   0.0800
     42 H17       -22.3474    18.4857   -18.4322 H          1  LIG1   0.0800
     43 H18       -18.8715    18.6454   -19.1134 H          1  LIG1   0.1200
     44 H19       -19.9109    18.4850   -17.6773 H          1  LIG1   0.1100
     45 H20       -18.1285    16.2948   -17.7354 H          1  LIG1   0.3900
     46 H21       -14.8712    18.9563   -16.2873 H          1  LIG1   0.1700
     47 H22       -16.6992    13.3509   -16.2456 H          1  LIG1   0.1300
     48 H23       -16.8409    11.0276   -15.4490 H          1  LIG1   0.1300
     49 H24       -15.6044    10.3349   -13.4379 H          1  LIG1   0.1300
     50 H25       -14.2207    11.9598   -12.2140 H          1  LIG1   0.1300
     51 H26       -14.0614    14.2853   -13.0008 H          1  LIG1   0.1400
     52 H27       -17.2728    15.4050   -15.9970 H          1  LIG1   0.1700
@<TRIPOS>BOND
     1    1    2 1
     2    1   28 1
     3    1   29 1
     4    1   30 1
     5    2    3 1
     6    2   10 1
     7    2    4 1
     8    4    5 1
     9    4   31 1
    10    4   32 1
    11    5    6 1
    12    5   33 1
    13    5   34 1
    14    6    7 1
    15    6   35 1
    16    6   36 1
    17    7    8 1
    18    7    9 1
    19    7   10 1
    20    8   37 1
    21    8   38 1
    22    8   39 1
    23    9   40 1
    24    9   41 1
    25    9   42 1
    26   10   11 1
    27   10   12 1
    28   12   13 1
    29   12   43 1
    30   12   44 1
    31   13   14 am
    32   13   45 1
    33   14   15 2
    34   14   16 1
    35   16   27 ar
    36   16   17 ar
    37   17   18 ar
    38   17   46 1
    39   18   19 ar
    40   19   20 ar
    41   20   21 1
    42   20   27 ar
    43   21   26 ar
    44   21   22 ar
    45   22   23 ar
    46   22   47 1
    47   23   24 ar
    48   23   48 1
    49   24   25 ar
    50   24   49 1
    51   25   26 ar
    52   25   50 1
    53   26   51 1
    54   27   52 1
##########                 Name:     ZINC000265066748
##########          Protonation:                 none
##########               SMILES:   C[NH+](C)C1(CNC(=O)C2=CSC(C3=CC=C(F)C=C3)=N2)CCOCC1
##########            Long Name:   NO_LONG_NAME
##########          FlexRecCode: 1
##########               Number:                12839
##########   Ligand Source File: /nfs/db/export/3D/FF/ADRO/FFADRO.xcdz.db2.gz
##########                 Rank:                    1
##########               Setnum:                  112
##########             Matchnum:                    1
##########                Cloud:                    1
##########        Electrostatic:           -43.341431
##########                 Gist:             0.000000
##########        Van der Waals:           -35.479485
##########  Ligand Polar Desolv:            18.585558
########## Ligand Apolar Desolv:            -4.154789
##########      Internal Energy:             0.000000
##########      Receptor Energy:             0.000000
########## Receptor Desolvation:             0.000000
########## Receptor Hydrophobic:             0.000000
##########         Total Energy:           -64.390144
##########        Ligand Charge:             1.000000
##########            Arbitrary:    +999.9990
##########        Ligand Energy:             0.000000

@<TRIPOS>MOLECULE
 ZINC000265066748      none
   48    50     0     0     0



@<TRIPOS>ATOM
      1 C1        -20.6405    16.9978   -17.2384 C.3        1  LIG1  -0.0600
      2 N1        -20.0202    16.2918   -18.3674 N.4        1  LIG1  -0.3800
      3 H1        -19.4379    15.5454   -18.0183 H          1  LIG1   0.4200
      4 C2        -21.0689    15.7320   -19.2303 C.3        1  LIG1  -0.0600
      5 C3        -19.1992    17.2322   -19.1416 C.3        1  LIG1   0.0400
      6 C4        -18.4534    18.1666   -18.1868 C.3        1  LIG1   0.1000
      7 N2        -17.5898    17.3766   -17.3058 N.am       1  LIG1  -0.7400
      8 C5        -16.4449    17.9069   -16.8319 C.2        1  LIG1   0.6100
      9 O1        -16.1288    19.0415   -17.1358 O.2        1  LIG1  -0.5100
     10 C6        -15.5767    17.1127   -15.9459 C.2        1  LIG1   0.0000
     11 C7        -14.4213    17.5974   -15.4385 C.2        1  LIG1  -0.2100
     12 S1        -13.6915    16.3977   -14.4623 S.3        1  LIG1   0.2400
     13 C8        -15.0156    15.2896   -14.8033 C.2        1  LIG1   0.1000
     14 C9        -15.1347    13.9123   -14.2778 C.ar       1  LIG1  -0.0500
     15 C10       -14.4189    13.5321   -13.1418 C.ar       1  LIG1  -0.0400
     16 C11       -14.5334    12.2465   -12.6559 C.ar       1  LIG1  -0.1600
     17 C12       -15.3577    11.3329   -13.2935 C.ar       1  LIG1   0.1300
     18 F1        -15.4664    10.0748   -12.8134 F          1  LIG1  -0.1300
     19 C13       -16.0711    11.7056   -14.4217 C.ar       1  LIG1  -0.1500
     20 C14       -15.9677    12.9902   -14.9127 C.ar       1  LIG1  -0.0600
     21 N3        -15.8744    15.8721   -15.5839 N.2        1  LIG1  -0.4500
     22 C15       -18.1904    16.4529   -19.9909 C.3        1  LIG1  -0.1700
     23 C16       -17.3933    17.4357   -20.8525 C.3        1  LIG1   0.0600
     24 O2        -18.2926    18.1919   -21.6658 O.3        1  LIG1  -0.3600
     25 C17       -19.2287    18.9778   -20.9253 C.3        1  LIG1   0.0600
     26 C18       -20.0995    18.0569   -20.0666 C.3        1  LIG1  -0.1700
     27 H2        -21.2695    17.8042   -17.6155 H          1  LIG1   0.1300
     28 H3        -21.2499    16.3000   -16.6640 H          1  LIG1   0.1300
     29 H4        -19.8625    17.4131   -16.5978 H          1  LIG1   0.1300
     30 H5        -20.6087    15.2080   -20.0682 H          1  LIG1   0.1200
     31 H6        -21.6781    15.0340   -18.6560 H          1  LIG1   0.1300
     32 H7        -21.6981    16.5382   -19.6073 H          1  LIG1   0.1300
     33 H8        -17.8447    18.8639   -18.7624 H          1  LIG1   0.1000
     34 H9        -19.1734    18.7227   -17.5866 H          1  LIG1   0.1100
     35 H10       -17.8419    16.4718   -17.0635 H          1  LIG1   0.4000
     36 H11       -14.0226    18.5844   -15.6207 H          1  LIG1   0.2000
     37 H12       -13.7761    14.2432   -12.6445 H          1  LIG1   0.1400
     38 H13       -13.9797    11.9511   -11.7770 H          1  LIG1   0.1500
     39 H14       -16.7124    10.9900   -14.9147 H          1  LIG1   0.1500
     40 H15       -16.5243    13.2797   -15.7918 H          1  LIG1   0.1400
     41 H16       -17.5101    15.9061   -19.3380 H          1  LIG1   0.1100
     42 H17       -18.7211    15.7515   -20.6348 H          1  LIG1   0.1100
     43 H18       -16.8311    18.1110   -20.2077 H          1  LIG1   0.0700
     44 H19       -16.7034    16.8832   -21.4902 H          1  LIG1   0.1200
     45 H20       -18.6904    19.6733   -20.2814 H          1  LIG1   0.0700
     46 H21       -19.8608    19.5363   -21.6157 H          1  LIG1   0.1200
     47 H22       -20.6689    17.3880   -20.7120 H          1  LIG1   0.1100
     48 H23       -20.7845    18.6572   -19.4680 H          1  LIG1   0.1000
@<TRIPOS>BOND
     1    1    2 1
     2    1   27 1
     3    1   28 1
     4    1   29 1
     5    2    3 1
     6    2    4 1
     7    2    5 1
     8    4   30 1
     9    4   31 1
    10    4   32 1
    11    5   26 1
    12    5    6 1
    13    5   22 1
    14    6    7 1
    15    6   33 1
    16    6   34 1
    17    7    8 am
    18    7   35 1
    19    8    9 2
    20    8   10 1
    21   10   21 1
    22   10   11 2
    23   11   12 1
    24   11   36 1
    25   12   13 1
    26   13   14 1
    27   13   21 2
    28   14   20 ar
    29   14   15 ar
    30   15   16 ar
    31   15   37 1
    32   16   17 ar
    33   16   38 1
    34   17   18 1
    35   17   19 ar
    36   19   20 ar
    37   19   39 1
    38   20   40 1
    39   22   23 1
    40   22   41 1
    41   22   42 1
    42   23   24 1
    43   23   43 1
    44   23   44 1
    45   24   25 1
    46   25   26 1
    47   25   45 1
    48   25   46 1
    49   26   47 1
    50   26   48 1
##########                 Name:     ZINC000267294321
##########          Protonation:                 none
##########               SMILES:   C[C@H](C(=O)NC1=CC=C2C=CC=CC2=C1)[N@H+]1CC[C@](C)(O)C1
##########            Long Name:   NO_LONG_NAME
##########          FlexRecCode: 1
##########               Number:                 6323
##########   Ligand Source File: /nfs/db/export/3D/CF/ADMO/CFADMO.xarr.db2.gz
##########                 Rank:                    1
##########               Setnum:                   30
##########             Matchnum:                    1
##########                Cloud:                    1
##########        Electrostatic:           -47.197720
##########                 Gist:             0.000000
##########        Van der Waals:           -29.948212
##########  Ligand Polar Desolv:            13.347094
########## Ligand Apolar Desolv:            -3.795524
##########      Internal Energy:             0.000000
##########      Receptor Energy:             0.000000
########## Receptor Desolvation:             0.000000
########## Receptor Hydrophobic:             0.000000
##########         Total Energy:           -67.594368
##########        Ligand Charge:             1.000000
##########            Arbitrary:    +999.9990
##########        Ligand Energy:             0.000000

@<TRIPOS>MOLECULE
 ZINC000267294321      none
   45    47     0     0     0



@<TRIPOS>ATOM
      1 C1        -17.1040    15.9662   -19.6148 C.3        1  LIG1  -0.1800
      2 C2        -17.6557    16.8909   -18.5277 C.3        1  LIG1   0.0100
      3 H1        -17.6691    17.9168   -18.8959 H          1  LIG1   0.1700
      4 C3        -16.7792    16.8074   -17.3047 C.2        1  LIG1   0.5100
      5 O1        -16.6664    17.7679   -16.5729 O.2        1  LIG1  -0.5100
      6 N1        -16.1206    15.6653   -17.0243 N.am       1  LIG1  -0.6400
      7 C4        -15.3071    15.5879   -15.8892 C.ar       1  LIG1   0.1200
      8 C5        -14.6748    16.7410   -15.4102 C.ar       1  LIG1  -0.1200
      9 C6        -13.8788    16.6951   -14.3092 C.ar       1  LIG1  -0.0800
     10 C7        -13.6828    15.4766   -13.6365 C.ar       1  LIG1  -0.0500
     11 C8        -12.8657    15.3993   -12.4956 C.ar       1  LIG1  -0.1000
     12 C9        -12.6970    14.2039   -11.8671 C.ar       1  LIG1  -0.1100
     13 C10       -13.3227    13.0508   -12.3374 C.ar       1  LIG1  -0.1000
     14 C11       -14.1209    13.0868   -13.4390 C.ar       1  LIG1  -0.1100
     15 C12       -14.3194    14.3036   -14.1149 C.ar       1  LIG1  -0.0400
     16 C13       -15.1412    14.3787   -15.2509 C.ar       1  LIG1  -0.1200
     17 N2        -19.0219    16.4774   -18.1804 N.4        1  LIG1  -0.3800
     18 H2        -19.0269    15.5284   -17.8374 H          1  LIG1   0.4400
     19 C14       -19.6021    17.3983   -17.1692 C.3        1  LIG1   0.0000
     20 C15       -21.1291    17.2227   -17.3140 C.3        1  LIG1  -0.1800
     21 C16       -21.3384    16.7058   -18.7523 C.3        1  LIG1   0.1200
     22 C17       -22.1926    17.6916   -19.5521 C.3        1  LIG1  -0.1800
     23 O2        -21.9569    15.4178   -18.7318 O.3        1  LIG1  -0.5500
     24 C18       -19.9198    16.6096   -19.3565 C.3        1  LIG1   0.0100
     25 H3        -17.0906    14.9403   -19.2466 H          1  LIG1   0.1100
     26 H4        -17.7381    16.0265   -20.4993 H          1  LIG1   0.0900
     27 H5        -16.0904    16.2730   -19.8728 H          1  LIG1   0.1000
     28 H6        -16.2109    14.8972   -17.6098 H          1  LIG1   0.4200
     29 H7        -14.8211    17.6803   -15.9227 H          1  LIG1   0.1400
     30 H8        -13.3974    17.5936   -13.9520 H          1  LIG1   0.1400
     31 H9        -12.3740    16.2841   -12.1195 H          1  LIG1   0.1300
     32 H10       -12.0681    14.1480   -10.9908 H          1  LIG1   0.1300
     33 H11       -13.1716    12.1148   -11.8202 H          1  LIG1   0.1300
     34 H12       -14.5992    12.1853   -13.7924 H          1  LIG1   0.1300
     35 H13       -15.6359    13.4942   -15.6239 H          1  LIG1   0.1300
     36 H14       -19.2801    17.1144   -16.1673 H          1  LIG1   0.1500
     37 H15       -19.3158    18.4278   -17.3841 H          1  LIG1   0.1300
     38 H16       -21.4963    16.4930   -16.5923 H          1  LIG1   0.1100
     39 H17       -21.6346    18.1787   -17.1778 H          1  LIG1   0.1200
     40 H18       -22.3316    17.3133   -20.5649 H          1  LIG1   0.0800
     41 H19       -23.1636    17.8052   -19.0703 H          1  LIG1   0.0800
     42 H20       -21.6909    18.6585   -19.5912 H          1  LIG1   0.0800
     43 H21       -21.4444    14.7427   -18.2661 H          1  LIG1   0.4000
     44 H22       -19.6817    17.5155   -19.9138 H          1  LIG1   0.1500
     45 H23       -19.8393    15.7340   -20.0004 H          1  LIG1   0.1500
@<TRIPOS>BOND
     1    1    2 1
     2    1   25 1
     3    1   26 1
     4    1   27 1
     5    2    3 1
     6    2    4 1
     7    2   17 1
     8    4    5 2
     9    4    6 am
    10    6    7 1
    11    6   28 1
    12    7   16 ar
    13    7    8 ar
    14    8    9 ar
    15    8   29 1
    16    9   10 ar
    17    9   30 1
    18   10   15 ar
    19   10   11 ar
    20   11   12 ar
    21   11   31 1
    22   12   13 ar
    23   12   32 1
    24   13   14 ar
    25   13   33 1
    26   14   15 ar
    27   14   34 1
    28   15   16 ar
    29   16   35 1
    30   17   18 1
    31   17   24 1
    32   17   19 1
    33   19   20 1
    34   19   36 1
    35   19   37 1
    36   20   21 1
    37   20   38 1
    38   20   39 1
    39   21   22 1
    40   21   23 1
    41   21   24 1
    42   22   40 1
    43   22   41 1
    44   22   42 1
    45   23   43 1
    46   24   44 1
    47   24   45 1
##########                 Name:     ZINC000626433159
##########          Protonation:                 none
##########               SMILES:   CO[C@@H]1CC[N@H+]([C@@H]2CCC[C@@H]2N(C)C(=O)NC2=CC=C(C)N=C2C)C1
##########            Long Name:   NO_LONG_NAME
##########          FlexRecCode: 1
##########               Number:                 3749
##########   Ligand Source File: /nfs/db/export/3D/EF/ADMO/EFADMO.xayi.db2.gz
##########                 Rank:                    1
##########               Setnum:                    5
##########             Matchnum:                    1
##########                Cloud:                    1
##########        Electrostatic:           -37.322666
##########                 Gist:             0.000000
##########        Van der Waals:           -33.986374
##########  Ligand Polar Desolv:            11.676689
########## Ligand Apolar Desolv:            -4.281983
##########      Internal Energy:             0.000000
##########      Receptor Energy:             0.000000
########## Receptor Desolvation:             0.000000
########## Receptor Hydrophobic:             0.000000
##########         Total Energy:           -63.914330
##########        Ligand Charge:             1.000000
##########            Arbitrary:    +999.9990
##########        Ligand Energy:             0.000000

@<TRIPOS>MOLECULE
 ZINC000626433159      none
   56    58     0     0     0



@<TRIPOS>ATOM
      1 C1        -23.5705    16.1652   -19.9446 C.3        1  LIG1   0.0200
      2 O1        -22.8524    17.0678   -19.1009 O.3        1  LIG1  -0.3600
      3 C2        -21.5598    16.5977   -18.7133 C.3        1  LIG1   0.0700
      4 H1        -21.5853    15.5311   -18.4902 H          1  LIG1   0.1000
      5 C3        -21.0135    17.4050   -17.5064 C.3        1  LIG1  -0.1700
      6 C4        -19.4841    17.2748   -17.6649 C.3        1  LIG1  -0.0100
      7 N1        -19.2167    16.9588   -19.0801 N.4        1  LIG1  -0.3800
      8 H2        -18.7572    16.0630   -19.1470 H          1  LIG1   0.4200
      9 C5        -18.3614    17.9996   -19.6659 C.3        1  LIG1   0.0200
     10 H3        -18.6670    18.9812   -19.3039 H          1  LIG1   0.1400
     11 C6        -18.4511    17.9525   -21.2053 C.3        1  LIG1  -0.1400
     12 C7        -17.0121    18.2748   -21.6797 C.3        1  LIG1  -0.1100
     13 C8        -16.1354    17.5408   -20.6347 C.3        1  LIG1  -0.1400
     14 C9        -16.8892    17.7385   -19.3021 C.3        1  LIG1   0.1500
     15 H4        -16.4792    18.5935   -18.7645 H          1  LIG1   0.1300
     16 N2        -16.7811    16.5305   -18.4805 N.am       1  LIG1  -0.6400
     17 C10       -16.5922    15.2252   -19.1182 C.3        1  LIG1   0.0500
     18 C11       -16.8552    16.6200   -17.1377 C.2        1  LIG1   0.6900
     19 O2        -17.0118    17.7033   -16.6083 O.2        1  LIG1  -0.5600
     20 N3        -16.7556    15.5086   -16.3817 N.am       1  LIG1  -0.6600
     21 C12       -15.7273    15.3931   -15.4391 C.ar       1  LIG1   0.0700
     22 C13       -14.8051    16.4224   -15.2701 C.ar       1  LIG1  -0.0600
     23 C14       -13.8053    16.2614   -14.3246 C.ar       1  LIG1  -0.1600
     24 C15       -13.7560    15.0942   -13.5861 C.ar       1  LIG1   0.1400
     25 C16       -12.6713    14.9119   -12.5558 C.3        1  LIG1  -0.1100
     26 N4        -14.6453    14.1377   -13.7700 N.ar       1  LIG1  -0.4600
     27 C17       -15.6152    14.2524   -14.6548 C.ar       1  LIG1   0.1200
     28 C18       -16.6060    13.1296   -14.8252 C.3        1  LIG1  -0.1100
     29 C19       -20.5054    16.9114   -19.8040 C.3        1  LIG1  -0.0100
     30 H5        -24.5407    16.5949   -20.1939 H          1  LIG1   0.0500
     31 H6        -23.0031    15.9937   -20.8593 H          1  LIG1   0.1000
     32 H7        -23.7153    15.2187   -19.4240 H          1  LIG1   0.0500
     33 H8        -21.3201    18.4491   -17.5707 H          1  LIG1   0.1100
     34 H9        -21.3427    16.9628   -16.5662 H          1  LIG1   0.1100
     35 H10       -19.0021    18.2153   -17.3976 H          1  LIG1   0.1300
     36 H11       -19.1125    16.4713   -17.0291 H          1  LIG1   0.1200
     37 H12       -18.7494    16.9591   -21.5398 H          1  LIG1   0.0900
     38 H13       -19.1504    18.7049   -21.5698 H          1  LIG1   0.1000
     39 H14       -16.8367    17.8767   -22.6790 H          1  LIG1   0.0900
     40 H15       -16.8280    19.3487   -21.6524 H          1  LIG1   0.0800
     41 H16       -16.0600    16.4808   -20.8771 H          1  LIG1   0.1000
     42 H17       -15.1449    17.9928   -20.5829 H          1  LIG1   0.0900
     43 H18       -16.5342    14.4517   -18.3525 H          1  LIG1   0.0700
     44 H19       -17.4334    15.0191   -19.7800 H          1  LIG1   0.0800
     45 H20       -15.6683    15.2337   -19.6967 H          1  LIG1   0.1000
     46 H21       -17.3966    14.7888   -16.4909 H          1  LIG1   0.4200
     47 H22       -14.8675    17.3238   -15.8616 H          1  LIG1   0.1500
     48 H23       -13.0725    17.0391   -14.1668 H          1  LIG1   0.1400
     49 H24       -12.7869    13.9408   -12.0744 H          1  LIG1   0.0900
     50 H25       -11.6967    14.9631   -13.0414 H          1  LIG1   0.0800
     51 H26       -12.7457    15.7001   -11.8066 H          1  LIG1   0.0800
     52 H27       -16.3646    12.3237   -14.1322 H          1  LIG1   0.0900
     53 H28       -17.6111    13.4975   -14.6188 H          1  LIG1   0.0600
     54 H29       -16.5589    12.7556   -15.8479 H          1  LIG1   0.0900
     55 H30       -20.4894    16.1224   -20.5559 H          1  LIG1   0.1400
     56 H31       -20.7157    17.8750   -20.2681 H          1  LIG1   0.1400
@<TRIPOS>BOND
     1    1    2 1
     2    1   30 1
     3    1   31 1
     4    1   32 1
     5    2    3 1
     6    3    4 1
     7    3   29 1
     8    3    5 1
     9    5    6 1
    10    5   33 1
    11    5   34 1
    12    6    7 1
    13    6   35 1
    14    6   36 1
    15    7    8 1
    16    7    9 1
    17    7   29 1
    18    9   10 1
    19    9   14 1
    20    9   11 1
    21   11   12 1
    22   11   37 1
    23   11   38 1
    24   12   13 1
    25   12   39 1
    26   12   40 1
    27   13   14 1
    28   13   41 1
    29   13   42 1
    30   14   15 1
    31   14   16 1
    32   16   17 1
    33   16   18 am
    34   17   43 1
    35   17   44 1
    36   17   45 1
    37   18   19 2
    38   18   20 am
    39   20   21 1
    40   20   46 1
    41   21   27 ar
    42   21   22 ar
    43   22   23 ar
    44   22   47 1
    45   23   24 ar
    46   23   48 1
    47   24   25 1
    48   24   26 ar
    49   25   49 1
    50   25   50 1
    51   25   51 1
    52   26   27 ar
    53   27   28 1
    54   28   52 1
    55   28   53 1
    56   28   54 1
    57   29   55 1
    58   29   56 1
##########                 Name:     ZINC000270061995
##########          Protonation:                 none
##########               SMILES:   O[C@@]1(C[NH2+]CC2=CN(C3=CC=C(F)C=C3Cl)N=N2)CCSC1
##########            Long Name:   NO_LONG_NAME
##########          FlexRecCode: 1
##########               Number:                 5196
##########   Ligand Source File: /nfs/db/export/3D/EE/ADRO/EEADRO.xasd.db2.gz
##########                 Rank:                    1
##########               Setnum:                  203
##########             Matchnum:                    1
##########                Cloud:                    1
##########        Electrostatic:           -47.337368
##########                 Gist:             0.000000
##########        Van der Waals:           -33.960308
##########  Ligand Polar Desolv:            19.972864
########## Ligand Apolar Desolv:            -3.950827
##########      Internal Energy:             0.000000
##########      Receptor Energy:             0.000000
########## Receptor Desolvation:             0.000000
########## Receptor Hydrophobic:             0.000000
##########         Total Energy:           -65.275635
##########        Ligand Charge:             1.000000
##########            Arbitrary:    +999.9990
##########        Ligand Energy:             0.000000

@<TRIPOS>MOLECULE
 ZINC000270061995      none
   39    41     0     0     0



@<TRIPOS>ATOM
      1 O1        -20.2775    18.5435   -18.1762 O.3        1  LIG1  -0.5600
      2 C1        -20.3571    17.4069   -19.0388 C.3        1  LIG1   0.1100
      3 C2        -18.9393    16.9316   -19.3623 C.3        1  LIG1   0.0100
      4 N1        -18.2502    16.5643   -18.1181 N.4        1  LIG1  -0.5100
      5 H1        -18.2048    17.3674   -17.5090 H          1  LIG1   0.4300
      6 H2        -18.7571    15.8223   -17.6593 H          1  LIG1   0.4400
      7 C3        -16.8888    16.1078   -18.4288 C.3        1  LIG1   0.1000
      8 C4        -16.1817    15.7310   -17.1524 C.2        1  LIG1  -0.1000
      9 C5        -16.1608    14.5096   -16.5687 C.2        1  LIG1   0.0000
     10 N2        -15.4045    14.6425   -15.4451 N.pl3      1  LIG1  -0.2300
     11 C6        -15.1098    13.6245   -14.5254 C.ar       1  LIG1   0.0900
     12 C7        -16.0087    12.5862   -14.3265 C.ar       1  LIG1  -0.0700
     13 C8        -15.7169    11.5846   -13.4210 C.ar       1  LIG1  -0.1300
     14 C9        -14.5281    11.6154   -12.7117 C.ar       1  LIG1   0.1500
     15 F1        -14.2447    10.6345   -11.8271 F          1  LIG1  -0.1100
     16 C10       -13.6290    12.6504   -12.9082 C.ar       1  LIG1  -0.1300
     17 C11       -13.9148    13.6516   -13.8169 C.ar       1  LIG1   0.0100
     18 Cl1       -12.7879    14.9489   -14.0632 Cl         1  LIG1   0.0100
     19 N3        -15.0061    15.8644   -15.3729 N.2        1  LIG1  -0.0300
     20 N4        -15.4470    16.5362   -16.3771 N.2        1  LIG1  -0.2400
     21 C12       -21.0988    16.2844   -18.3112 C.3        1  LIG1  -0.1500
     22 C13       -22.6149    16.3989   -18.6204 C.3        1  LIG1  -0.0800
     23 S1        -22.5750    16.8003   -20.4155 S.3        1  LIG1  -0.2300
     24 C14       -21.0532    17.8214   -20.3451 C.3        1  LIG1  -0.1400
     25 H3        -19.7804    19.2851   -18.5477 H          1  LIG1   0.4100
     26 H4        -18.9882    16.0641   -20.0203 H          1  LIG1   0.1500
     27 H5        -18.3916    17.7332   -19.8579 H          1  LIG1   0.1500
     28 H6        -16.9378    15.2403   -19.0868 H          1  LIG1   0.1500
     29 H7        -16.3412    16.9094   -18.9245 H          1  LIG1   0.1500
     30 H8        -16.6461    13.6121   -16.9226 H          1  LIG1   0.2100
     31 H9        -16.9364    12.5616   -14.8789 H          1  LIG1   0.1600
     32 H10       -16.4168    10.7768   -13.2660 H          1  LIG1   0.1700
     33 H11       -12.7024    12.6730   -12.3538 H          1  LIG1   0.1700
     34 H12       -20.7275    15.3187   -18.6541 H          1  LIG1   0.1000
     35 H13       -20.9366    16.3751   -17.2372 H          1  LIG1   0.1100
     36 H14       -23.1251    15.4526   -18.4405 H          1  LIG1   0.1200
     37 H15       -23.0728    17.2053   -18.0475 H          1  LIG1   0.1000
     38 H16       -21.3086    18.8807   -20.3188 H          1  LIG1   0.1200
     39 H17       -20.4127    17.6063   -21.2003 H          1  LIG1   0.1100
@<TRIPOS>BOND
     1    1    2 1
     2    1   25 1
     3    2   24 1
     4    2    3 1
     5    2   21 1
     6    3    4 1
     7    3   26 1
     8    3   27 1
     9    4    5 1
    10    4    6 1
    11    4    7 1
    12    7    8 1
    13    7   28 1
    14    7   29 1
    15    8   20 1
    16    8    9 2
    17    9   10 1
    18    9   30 1
    19   10   11 1
    20   10   19 1
    21   11   17 ar
    22   11   12 ar
    23   12   13 ar
    24   12   31 1
    25   13   14 ar
    26   13   32 1
    27   14   15 1
    28   14   16 ar
    29   16   17 ar
    30   16   33 1
    31   17   18 1
    32   19   20 2
    33   21   22 1
    34   21   34 1
    35   21   35 1
    36   22   23 1
    37   22   36 1
    38   22   37 1
    39   23   24 1
    40   24   38 1
    41   24   39 1
##########                 Name:     ZINC000452104081
##########          Protonation:                 none
##########               SMILES:   C[C@@H](C(=O)NC1=CC=C(Cl)C=C1C(F)(F)F)[N@@H+]1C[C@H](C)C[C@@H](O)C1
##########            Long Name:   NO_LONG_NAME
##########          FlexRecCode: 1
##########               Number:                 9878
##########   Ligand Source File: /nfs/db/export/3D/FG/ADMO/FGADMO.xaqw.db2.gz
##########                 Rank:                    1
##########               Setnum:                   80
##########             Matchnum:                    1
##########                Cloud:                    1
##########        Electrostatic:           -47.560291
##########                 Gist:             0.000000
##########        Van der Waals:           -30.527985
##########  Ligand Polar Desolv:            11.950361
########## Ligand Apolar Desolv:            -3.877316
##########      Internal Energy:             0.000000
##########      Receptor Energy:             0.000000
########## Receptor Desolvation:             0.000000
########## Receptor Hydrophobic:             0.000000
##########         Total Energy:           -70.015228
##########        Ligand Charge:             1.000000
##########            Arbitrary:    +999.9990
##########        Ligand Energy:             0.000000

@<TRIPOS>MOLECULE
 ZINC000452104081      none
   45    46     0     0     0



@<TRIPOS>ATOM
      1 C1        -16.4024    16.9984   -19.9390 C.3        1  LIG1  -0.1800
      2 C2        -16.8987    15.8944   -19.0032 C.3        1  LIG1   0.0100
      3 H1        -16.8799    14.9385   -19.5268 H          1  LIG1   0.1600
      4 C3        -16.0039    15.8218   -17.7928 C.2        1  LIG1   0.5100
      5 O1        -15.0619    16.5785   -17.6888 O.2        1  LIG1  -0.4900
      6 N1        -16.2505    14.9158   -16.8258 N.am       1  LIG1  -0.6500
      7 C4        -15.4193    14.8483   -15.7016 C.ar       1  LIG1   0.1800
      8 C5        -14.7848    15.9922   -15.2362 C.ar       1  LIG1  -0.1200
      9 C6        -13.9650    15.9229   -14.1266 C.ar       1  LIG1  -0.0500
     10 C7        -13.7756    14.7148   -13.4793 C.ar       1  LIG1  -0.0500
     11 Cl1       -12.7447    14.6311   -12.0851 Cl         1  LIG1  -0.0300
     12 C8        -14.4070    13.5730   -13.9412 C.ar       1  LIG1  -0.0400
     13 C9        -15.2324    13.6381   -15.0464 C.ar       1  LIG1  -0.2000
     14 C10       -15.9195    12.3945   -15.5487 C.3        1  LIG1   0.5100
     15 F1        -16.6848    12.7081   -16.6772 F          1  LIG1  -0.1600
     16 F2        -14.9588    11.4359   -15.8885 F          1  LIG1  -0.1800
     17 F3        -16.7526    11.8850   -14.5470 F          1  LIG1  -0.1700
     18 N2        -18.2730    16.1932   -18.5789 N.4        1  LIG1  -0.3700
     19 H2        -18.5994    15.4647   -17.9619 H          1  LIG1   0.4400
     20 C11       -19.1442    16.2602   -19.7584 C.3        1  LIG1  -0.0200
     21 C12       -20.5907    16.4910   -19.3162 C.3        1  LIG1  -0.1000
     22 H3        -20.9111    15.6693   -18.6757 H          1  LIG1   0.1000
     23 C13       -21.4961    16.5618   -20.5475 C.3        1  LIG1  -0.1500
     24 C14       -20.6777    17.8083   -18.5401 C.3        1  LIG1  -0.1700
     25 C15       -19.7098    17.7556   -17.3544 C.3        1  LIG1   0.0900
     26 H4        -19.7251    18.7106   -16.8294 H          1  LIG1   0.1100
     27 O2        -20.1065    16.7134   -16.4607 O.3        1  LIG1  -0.5700
     28 C16       -18.2962    17.4787   -17.8707 C.3        1  LIG1   0.0000
     29 H5        -16.4213    17.9542   -19.4152 H          1  LIG1   0.1000
     30 H6        -15.3827    16.7766   -20.2538 H          1  LIG1   0.1100
     31 H7        -17.0497    17.0510   -20.8144 H          1  LIG1   0.1000
     32 H8        -17.0039    14.3106   -16.9090 H          1  LIG1   0.4200
     33 H9        -14.9317    16.9353   -15.7416 H          1  LIG1   0.1700
     34 H10       -13.4712    16.8125   -13.7642 H          1  LIG1   0.1500
     35 H11       -14.2575    12.6312   -13.4341 H          1  LIG1   0.1600
     36 H12       -18.8249    17.0823   -20.3990 H          1  LIG1   0.1300
     37 H13       -19.0787    15.3233   -20.3114 H          1  LIG1   0.1300
     38 H14       -22.5264    16.7262   -20.2321 H          1  LIG1   0.0700
     39 H15       -21.1763    17.3846   -21.1868 H          1  LIG1   0.0800
     40 H16       -21.4307    15.6250   -21.1011 H          1  LIG1   0.0700
     41 H17       -20.4064    18.6360   -19.1954 H          1  LIG1   0.0900
     42 H18       -21.6947    17.9496   -18.1744 H          1  LIG1   0.1000
     43 H19       -20.1145    15.8334   -16.8614 H          1  LIG1   0.4100
     44 H20       -17.6037    17.4406   -17.0298 H          1  LIG1   0.1400
     45 H21       -17.9959    18.2754   -18.5515 H          1  LIG1   0.1400
@<TRIPOS>BOND
     1    1    2 1
     2    1   29 1
     3    1   30 1
     4    1   31 1
     5    2    3 1
     6    2    4 1
     7    2   18 1
     8    4    5 2
     9    4    6 am
    10    6    7 1
    11    6   32 1
    12    7   13 ar
    13    7    8 ar
    14    8    9 ar
    15    8   33 1
    16    9   10 ar
    17    9   34 1
    18   10   11 1
    19   10   12 ar
    20   12   13 ar
    21   12   35 1
    22   13   14 1
    23   14   15 1
    24   14   16 1
    25   14   17 1
    26   18   19 1
    27   18   28 1
    28   18   20 1
    29   20   21 1
    30   20   36 1
    31   20   37 1
    32   21   22 1
    33   21   23 1
    34   21   24 1
    35   23   38 1
    36   23   39 1
    37   23   40 1
    38   24   25 1
    39   24   41 1
    40   24   42 1
    41   25   26 1
    42   25   27 1
    43   25   28 1
    44   27   43 1
    45   28   44 1
    46   28   45 1
##########                 Name:     ZINC000480408888
##########          Protonation:                 none
##########               SMILES:   C[NH+](C)[C@@]1(CNC(=O)C2=CN(C3=CC=C(Cl)C=C3)N=C2)CCSC1
##########            Long Name:   NO_LONG_NAME
##########          FlexRecCode: 1
##########               Number:                19498
##########   Ligand Source File: /nfs/db/export/3D/FF/ADRO/FFADRO.xcjp.db2.gz
##########                 Rank:                    1
##########               Setnum:                   93
##########             Matchnum:                    1
##########                Cloud:                    1
##########        Electrostatic:           -48.028625
##########                 Gist:             0.000000
##########        Van der Waals:           -35.946583
##########  Ligand Polar Desolv:            20.660194
########## Ligand Apolar Desolv:            -5.734595
##########      Internal Energy:             0.000000
##########      Receptor Energy:             0.000000
########## Receptor Desolvation:             0.000000
########## Receptor Hydrophobic:             0.000000
##########         Total Energy:           -69.049606
##########        Ligand Charge:             1.000000
##########            Arbitrary:    +999.9990
##########        Ligand Energy:             0.000000

@<TRIPOS>MOLECULE
 ZINC000480408888      none
   46    48     0     0     0



@<TRIPOS>ATOM
      1 C1        -21.2845    15.4824   -19.9445 C.3        1  LIG1  -0.0600
      2 N1        -20.0293    16.0055   -19.3888 N.4        1  LIG1  -0.3800
      3 H1        -19.6509    15.3420   -18.7296 H          1  LIG1   0.4200
      4 C2        -19.0646    16.2204   -20.4757 C.3        1  LIG1  -0.0700
      5 C3        -20.2896    17.2800   -18.7062 C.3        1  LIG1   0.0500
      6 C4        -18.9678    18.0333   -18.5448 C.3        1  LIG1   0.1100
      7 N2        -18.0393    17.2257   -17.7498 N.am       1  LIG1  -0.7500
      8 C5        -17.1138    17.8279   -16.9769 C.2        1  LIG1   0.6100
      9 O1        -17.0494    19.0417   -16.9395 O.2        1  LIG1  -0.5200
     10 C6        -16.1796    17.0153   -16.1771 C.2        1  LIG1  -0.3000
     11 C7        -16.4085    15.7429   -15.6923 C.2        1  LIG1   0.1500
     12 N3        -15.3072    15.3655   -15.0181 N.pl3      1  LIG1  -0.3000
     13 C8        -15.1253    14.1371   -14.3678 C.ar       1  LIG1   0.1400
     14 C9        -14.3158    14.0592   -13.2424 C.ar       1  LIG1  -0.1200
     15 C10       -14.1386    12.8478   -12.6032 C.ar       1  LIG1  -0.0800
     16 C11       -14.7671    11.7122   -13.0835 C.ar       1  LIG1  -0.0300
     17 Cl1       -14.5423    10.1911   -12.2778 Cl         1  LIG1  -0.0500
     18 C12       -15.5747    11.7874   -14.2048 C.ar       1  LIG1  -0.0900
     19 C13       -15.7589    12.9973   -14.8446 C.ar       1  LIG1  -0.0900
     20 N4        -14.3739    16.4066   -15.0760 N.2        1  LIG1  -0.2800
     21 C14       -14.8799    17.3901   -15.7681 C.2        1  LIG1   0.0800
     22 C15       -21.2329    18.1199   -19.5685 C.3        1  LIG1  -0.1500
     23 C16       -22.6978    17.8103   -19.1619 C.3        1  LIG1  -0.1000
     24 S1        -22.5430    17.7390   -17.3299 S.3        1  LIG1  -0.2000
     25 C17       -20.8696    16.9887   -17.3128 C.3        1  LIG1  -0.1100
     26 H2        -21.6932    16.1993   -20.6567 H          1  LIG1   0.1300
     27 H3        -21.0913    14.5369   -20.4512 H          1  LIG1   0.1300
     28 H4        -22.0003    15.3230   -19.1382 H          1  LIG1   0.1300
     29 H5        -18.1332    16.6085   -20.0634 H          1  LIG1   0.1300
     30 H6        -18.8716    15.2746   -20.9822 H          1  LIG1   0.1300
     31 H7        -19.4733    16.9371   -21.1878 H          1  LIG1   0.1300
     32 H8        -18.5352    18.2227   -19.5272 H          1  LIG1   0.1200
     33 H9        -19.1494    18.9816   -18.0389 H          1  LIG1   0.1000
     34 H10       -18.0906    16.2575   -17.7797 H          1  LIG1   0.3900
     35 H11       -17.3064    15.1583   -15.8290 H          1  LIG1   0.2000
     36 H12       -13.8250    14.9450   -12.8674 H          1  LIG1   0.1400
     37 H13       -13.5088    12.7866   -11.7280 H          1  LIG1   0.1500
     38 H14       -16.0644    10.8999   -14.5775 H          1  LIG1   0.1500
     39 H15       -16.3893    13.0555   -15.7196 H          1  LIG1   0.1500
     40 H16       -14.3934    18.3300   -15.9839 H          1  LIG1   0.1900
     41 H17       -21.0259    19.1786   -19.4123 H          1  LIG1   0.1300
     42 H18       -21.0850    17.8725   -20.6198 H          1  LIG1   0.1000
     43 H19       -23.3687    18.6127   -19.4686 H          1  LIG1   0.1300
     44 H20       -23.0237    16.8520   -19.5664 H          1  LIG1   0.1100
     45 H21       -20.9382    15.9133   -17.1482 H          1  LIG1   0.1200
     46 H22       -20.2543    17.4523   -16.5417 H          1  LIG1   0.1400
@<TRIPOS>BOND
     1    1    2 1
     2    1   26 1
     3    1   27 1
     4    1   28 1
     5    2    3 1
     6    2    4 1
     7    2    5 1
     8    4   29 1
     9    4   30 1
    10    4   31 1
    11    5   25 1
    12    5    6 1
    13    5   22 1
    14    6    7 1
    15    6   32 1
    16    6   33 1
    17    7    8 am
    18    7   34 1
    19    8    9 2
    20    8   10 1
    21   10   21 1
    22   10   11 2
    23   11   12 1
    24   11   35 1
    25   12   13 1
    26   12   20 1
    27   13   19 ar
    28   13   14 ar
    29   14   15 ar
    30   14   36 1
    31   15   16 ar
    32   15   37 1
    33   16   17 1
    34   16   18 ar
    35   18   19 ar
    36   18   38 1
    37   19   39 1
    38   20   21 2
    39   21   40 1
    40   22   23 1
    41   22   41 1
    42   22   42 1
    43   23   24 1
    44   23   43 1
    45   23   44 1
    46   24   25 1
    47   25   45 1
    48   25   46 1
##########                 Name:     ZINC000131555915
##########          Protonation:                 none
##########               SMILES:   C[C@H](Cn1ncc2ccccc2c1=O)[NH2+]C[C@@H]1CC=CCC1
##########            Long Name:   NO_LONG_NAME
##########          FlexRecCode: 1
##########               Number:                10852
##########   Ligand Source File: /nfs/db/export/3D/CF/ADRO/CFADRO.xchv.db2.gz
##########                 Rank:                    1
##########               Setnum:                   60
##########             Matchnum:                    1
##########                Cloud:                    1
##########        Electrostatic:           -37.469353
##########                 Gist:             0.000000
##########        Van der Waals:           -31.611710
##########  Ligand Polar Desolv:            10.188316
########## Ligand Apolar Desolv:            -5.010821
##########      Internal Energy:             0.000000
##########      Receptor Energy:             0.000000
########## Receptor Desolvation:             0.000000
########## Receptor Hydrophobic:             0.000000
##########         Total Energy:           -63.903568
##########        Ligand Charge:             1.000000
##########            Arbitrary:    +999.9990
##########        Ligand Energy:             0.000000

@<TRIPOS>MOLECULE
 ZINC000131555915      none
   46    48     0     0     0



@<TRIPOS>ATOM
      1 C1        -16.1606    15.7246   -17.4448 C.3        1  LIG1  -0.1800
      2 C2        -16.9955    16.9364   -17.8636 C.3        1  LIG1   0.0100
      3 H1        -16.4920    17.4617   -18.6752 H          1  LIG1   0.1500
      4 C3        -17.1599    17.8796   -16.6701 C.3        1  LIG1   0.1100
      5 N1        -15.8409    18.3283   -16.2172 N.am       1  LIG1  -0.4500
      6 N2        -15.1646    17.5825   -15.2514 N.2        1  LIG1  -0.2500
      7 C4        -13.9925    17.9165   -14.8002 C.2        1  LIG1   0.1500
      8 C5        -13.3289    19.1183   -15.3059 C.ar       1  LIG1  -0.0800
      9 C6        -12.0706    19.5126   -14.8477 C.ar       1  LIG1  -0.0800
     10 C7        -11.4890    20.6528   -15.3557 C.ar       1  LIG1  -0.0800
     11 C8        -12.1398    21.4140   -16.3177 C.ar       1  LIG1  -0.1000
     12 C9        -13.3822    21.0447   -16.7851 C.ar       1  LIG1  -0.0500
     13 C10       -13.9901    19.8945   -16.2855 C.ar       1  LIG1  -0.1400
     14 C11       -15.3103    19.4490   -16.7492 C.2        1  LIG1   0.5200
     15 O1        -15.9170    20.0821   -17.5947 O.2        1  LIG1  -0.5300
     16 N3        -18.3181    16.4864   -18.3177 N.4        1  LIG1  -0.5100
     17 H2        -18.2180    15.6419   -18.8607 H          1  LIG1   0.4300
     18 H3        -18.9044    16.3039   -17.5170 H          1  LIG1   0.4200
     19 C12       -18.9330    17.5317   -19.1469 C.3        1  LIG1  -0.0100
     20 C13       -20.3105    17.0628   -19.6198 C.3        1  LIG1  -0.1200
     21 H4        -20.2054    16.1504   -20.2069 H          1  LIG1   0.0900
     22 C14       -20.9593    18.1531   -20.4754 C.3        1  LIG1  -0.1000
     23 C15       -22.4022    17.8246   -20.7245 C.2        1  LIG1  -0.1700
     24 C16       -23.0793    16.9633   -20.0352 C.2        1  LIG1  -0.1400
     25 C17       -22.5134    16.1656   -18.8970 C.3        1  LIG1  -0.1000
     26 C18       -21.2086    16.7941   -18.4056 C.3        1  LIG1  -0.1100
     27 H5        -16.6642    15.1994   -16.6333 H          1  LIG1   0.1100
     28 H6        -16.0436    15.0528   -18.2951 H          1  LIG1   0.0900
     29 H7        -15.1792    16.0585   -17.1078 H          1  LIG1   0.0900
     30 H8        -17.7547    18.7428   -16.9684 H          1  LIG1   0.1200
     31 H9        -17.6633    17.3542   -15.8586 H          1  LIG1   0.1400
     32 H10       -13.5084    17.3070   -14.0516 H          1  LIG1   0.2100
     33 H11       -11.5566    18.9274   -14.0994 H          1  LIG1   0.1500
     34 H12       -10.5158    20.9589   -15.0015 H          1  LIG1   0.1400
     35 H13       -11.6672    22.3053   -16.7034 H          1  LIG1   0.1400
     36 H14       -13.8813    21.6422   -17.5337 H          1  LIG1   0.1500
     37 H15       -19.0413    18.4439   -18.5603 H          1  LIG1   0.1300
     38 H16       -18.2996    17.7288   -20.0118 H          1  LIG1   0.1400
     39 H17       -20.8908    19.1088   -19.9557 H          1  LIG1   0.0900
     40 H18       -20.4350    18.2241   -21.4285 H          1  LIG1   0.0700
     41 H19       -22.9070    18.3389   -21.5288 H          1  LIG1   0.1100
     42 H20       -24.1163    16.8094   -20.2951 H          1  LIG1   0.1100
     43 H21       -23.2339    16.1412   -18.0795 H          1  LIG1   0.0900
     44 H22       -22.3159    15.1475   -19.2323 H          1  LIG1   0.0800
     45 H23       -20.7092    16.1114   -17.7181 H          1  LIG1   0.0800
     46 H24       -21.4229    17.7359   -17.9005 H          1  LIG1   0.0800
@<TRIPOS>BOND
     1    1    2 1
     2    1   27 1
     3    1   28 1
     4    1   29 1
     5    2    3 1
     6    2    4 1
     7    2   16 1
     8    4    5 1
     9    4   30 1
    10    4   31 1
    11    5   14 am
    12    5    6 1
    13    6    7 2
    14    7    8 1
    15    7   32 1
    16    8   13 ar
    17    8    9 ar
    18    9   10 ar
    19    9   33 1
    20   10   11 ar
    21   10   34 1
    22   11   12 ar
    23   11   35 1
    24   12   13 ar
    25   12   36 1
    26   13   14 1
    27   14   15 2
    28   16   17 1
    29   16   18 1
    30   16   19 1
    31   19   20 1
    32   19   37 1
    33   19   38 1
    34   20   21 1
    35   20   26 1
    36   20   22 1
    37   22   23 1
    38   22   39 1
    39   22   40 1
    40   23   24 2
    41   23   41 1
    42   24   25 1
    43   24   42 1
    44   25   26 1
    45   25   43 1
    46   25   44 1
    47   26   45 1
    48   26   46 1
##########                 Name:     ZINC000651686924
##########          Protonation:                 none
##########               SMILES:   CC1=NN(C2=CC(C)=CC=C2)C=C1C[NH2+][C@@H]1C2=CC=CC=C2C[C@@H]1O
##########            Long Name:   NO_LONG_NAME
##########          FlexRecCode: 1
##########               Number:                14720
##########   Ligand Source File: /nfs/db/export/3D/EG/ADRO/EGADRO.xbfc.db2.gz
##########                 Rank:                    1
##########               Setnum:                    2
##########             Matchnum:                    1
##########                Cloud:                    1
##########        Electrostatic:           -41.184620
##########                 Gist:             0.000000
##########        Van der Waals:           -34.929054
##########  Ligand Polar Desolv:            14.146805
########## Ligand Apolar Desolv:            -4.875954
##########      Internal Energy:             0.000000
##########      Receptor Energy:             0.000000
########## Receptor Desolvation:             0.000000
########## Receptor Hydrophobic:             0.000000
##########         Total Energy:           -66.842827
##########        Ligand Charge:             1.000000
##########            Arbitrary:    +999.9990
##########        Ligand Energy:             0.000000

@<TRIPOS>MOLECULE
 ZINC000651686924      none
   49    52     0     0     0



@<TRIPOS>ATOM
      1 C1        -15.5256    18.6807   -17.9501 C.3        1  LIG1  -0.0900
      2 C2        -15.5694    17.3390   -17.2653 C.2        1  LIG1   0.1000
      3 N1        -14.9920    17.0380   -16.1301 N.2        1  LIG1  -0.2700
      4 N2        -15.2710    15.6965   -15.8389 N.pl3      1  LIG1  -0.3000
      5 C3        -14.8350    14.9893   -14.7097 C.ar       1  LIG1   0.1300
      6 C4        -15.1820    13.6551   -14.5478 C.ar       1  LIG1  -0.1100
      7 C5        -14.7505    12.9607   -13.4343 C.ar       1  LIG1  -0.0600
      8 C6        -15.1268    11.5122   -13.2578 C.3        1  LIG1  -0.1200
      9 C7        -13.9733    13.5933   -12.4817 C.ar       1  LIG1  -0.1100
     10 C8        -13.6264    14.9227   -12.6399 C.ar       1  LIG1  -0.0900
     11 C9        -14.0504    15.6206   -13.7536 C.ar       1  LIG1  -0.1400
     12 C10       -16.0359    15.2045   -16.8397 C.2        1  LIG1   0.1100
     13 C11       -16.2393    16.2021   -17.7309 C.2        1  LIG1  -0.3100
     14 C12       -17.0381    16.1036   -19.0049 C.3        1  LIG1   0.0800
     15 N3        -18.4367    16.4627   -18.7350 N.4        1  LIG1  -0.4900
     16 H1        -18.8198    15.8306   -18.0481 H          1  LIG1   0.4300
     17 H2        -18.4796    17.4076   -18.3834 H          1  LIG1   0.4200
     18 C13       -19.2155    16.3667   -19.9768 C.3        1  LIG1   0.0900
     19 H3        -18.9073    15.4918   -20.5492 H          1  LIG1   0.1500
     20 C14       -19.0424    17.6228   -20.8038 C.ar       1  LIG1  -0.1700
     21 C15       -17.9979    18.0232   -21.6195 C.ar       1  LIG1  -0.0800
     22 C16       -18.0603    19.2316   -22.2861 C.ar       1  LIG1  -0.1100
     23 C17       -19.1687    20.0439   -22.1392 C.ar       1  LIG1  -0.0800
     24 C18       -20.2122    19.6460   -21.3259 C.ar       1  LIG1  -0.1000
     25 C19       -20.1514    18.4355   -20.6567 C.ar       1  LIG1  -0.0700
     26 C20       -21.1451    17.7805   -19.7214 C.3        1  LIG1  -0.1300
     27 C21       -20.7240    16.2944   -19.6589 C.3        1  LIG1   0.1000
     28 H4        -21.2520    15.7101   -20.4125 H          1  LIG1   0.1100
     29 O1        -20.9486    15.7574   -18.3537 O.3        1  LIG1  -0.5700
     30 H5        -14.9294    19.3728   -17.3554 H          1  LIG1   0.0900
     31 H6        -15.0769    18.5703   -18.9373 H          1  LIG1   0.0900
     32 H7        -16.5387    19.0695   -18.0527 H          1  LIG1   0.0700
     33 H8        -15.7891    13.1603   -15.2916 H          1  LIG1   0.1400
     34 H9        -14.6990    11.1363   -12.3283 H          1  LIG1   0.0800
     35 H10       -16.2123    11.4206   -13.2213 H          1  LIG1   0.0800
     36 H11       -14.7412    10.9319   -14.0961 H          1  LIG1   0.0700
     37 H12       -13.6368    13.0483   -11.6121 H          1  LIG1   0.1400
     38 H13       -13.0198    15.4144   -11.8939 H          1  LIG1   0.1400
     39 H14       -13.7791    16.6588   -13.8766 H          1  LIG1   0.1300
     40 H15       -16.4195    14.1976   -16.9122 H          1  LIG1   0.1900
     41 H16       -16.6244    16.7867   -19.7470 H          1  LIG1   0.1300
     42 H17       -16.9919    15.0830   -19.3847 H          1  LIG1   0.1400
     43 H18       -17.1314    17.3889   -21.7349 H          1  LIG1   0.1300
     44 H19       -17.2436    19.5414   -22.9212 H          1  LIG1   0.1400
     45 H20       -19.2190    20.9892   -22.6592 H          1  LIG1   0.1400
     46 H21       -21.0779    20.2813   -21.2115 H          1  LIG1   0.1300
     47 H22       -21.0868    18.2323   -18.7311 H          1  LIG1   0.1000
     48 H23       -22.1556    17.8704   -20.1201 H          1  LIG1   0.1000
     49 H24       -20.6029    14.8627   -18.2317 H          1  LIG1   0.4200
@<TRIPOS>BOND
     1    1    2 1
     2    1   30 1
     3    1   31 1
     4    1   32 1
     5    2   13 1
     6    2    3 2
     7    3    4 1
     8    4    5 1
     9    4   12 1
    10    5   11 ar
    11    5    6 ar
    12    6    7 ar
    13    6   33 1
    14    7    8 1
    15    7    9 ar
    16    8   34 1
    17    8   35 1
    18    8   36 1
    19    9   10 ar
    20    9   37 1
    21   10   11 ar
    22   10   38 1
    23   11   39 1
    24   12   13 2
    25   12   40 1
    26   13   14 1
    27   14   15 1
    28   14   41 1
    29   14   42 1
    30   15   16 1
    31   15   17 1
    32   15   18 1
    33   18   19 1
    34   18   27 1
    35   18   20 1
    36   20   25 ar
    37   20   21 ar
    38   21   22 ar
    39   21   43 1
    40   22   23 ar
    41   22   44 1
    42   23   24 ar
    43   23   45 1
    44   24   25 ar
    45   24   46 1
    46   25   26 1
    47   26   27 1
    48   26   47 1
    49   26   48 1
    50   27   28 1
    51   27   29 1
    52   29   49 1
##########                 Name:     ZINC000450557088
##########          Protonation:                 none
##########               SMILES:   C[C@@H](C1=CC=CC=C1)[C@H](O)C[N@H+](C)CC(=O)NC1=CC(F)=CC(F)=C1
##########            Long Name:   NO_LONG_NAME
##########          FlexRecCode: 1
##########               Number:                 6070
##########   Ligand Source File: /nfs/db/export/3D/EF/ADMO/EFADMO.xbkd.db2.gz
##########                 Rank:                    1
##########               Setnum:                   82
##########             Matchnum:                    1
##########                Cloud:                    1
##########        Electrostatic:           -48.862015
##########                 Gist:             0.000000
##########        Van der Waals:           -34.858021
##########  Ligand Polar Desolv:            18.023304
########## Ligand Apolar Desolv:            -4.498672
##########      Internal Energy:             0.000000
##########      Receptor Energy:             0.000000
########## Receptor Desolvation:             0.000000
########## Receptor Hydrophobic:             0.000000
##########         Total Energy:           -70.195404
##########        Ligand Charge:             1.000000
##########            Arbitrary:    +999.9990
##########        Ligand Energy:             0.000000

@<TRIPOS>MOLECULE
 ZINC000450557088      none
   48    49     0     0     0



@<TRIPOS>ATOM
      1 C1        -22.5068    17.0629   -19.7198 C.3        1  LIG1  -0.1600
      2 C2        -21.0045    17.0399   -20.0082 C.3        1  LIG1  -0.0700
      3 H1        -20.7573    16.1437   -20.5771 H          1  LIG1   0.0900
      4 C3        -20.6274    18.2614   -20.8064 C.ar       1  LIG1  -0.0900
      5 C4        -19.5721    18.2060   -21.6974 C.ar       1  LIG1  -0.1100
      6 C5        -19.2262    19.3264   -22.4296 C.ar       1  LIG1  -0.1100
      7 C6        -19.9361    20.5019   -22.2710 C.ar       1  LIG1  -0.1100
      8 C7        -20.9921    20.5571   -21.3806 C.ar       1  LIG1  -0.1100
      9 C8        -21.3406    19.4354   -20.6517 C.ar       1  LIG1  -0.1100
     10 C9        -20.2317    17.0351   -18.6877 C.3        1  LIG1   0.0900
     11 H2        -20.5043    16.1516   -18.1104 H          1  LIG1   0.1200
     12 O1        -20.5556    18.2101   -17.9418 O.3        1  LIG1  -0.5500
     13 C10       -18.7292    17.0123   -18.9760 C.3        1  LIG1  -0.0500
     14 N1        -18.0098    16.5338   -17.7881 N.4        1  LIG1  -0.3700
     15 H3        -18.5254    15.7770   -17.3647 H          1  LIG1   0.4400
     16 C11       -17.8725    17.6329   -16.8231 C.3        1  LIG1  -0.0600
     17 C12       -16.6767    16.0582   -18.1814 C.3        1  LIG1  -0.0300
     18 C13       -15.9386    15.5674   -16.9626 C.2        1  LIG1   0.5100
     19 O2        -14.8902    16.0847   -16.6393 O.2        1  LIG1  -0.5000
     20 N2        -16.4435    14.5537   -16.2318 N.am       1  LIG1  -0.6400
     21 C14       -15.7582    14.0980   -15.1003 C.ar       1  LIG1   0.1800
     22 C15       -14.9771    14.9757   -14.3604 C.ar       1  LIG1  -0.1800
     23 C16       -14.3001    14.5232   -13.2420 C.ar       1  LIG1   0.1600
     24 F1        -13.5401    15.3769   -12.5217 F          1  LIG1  -0.1200
     25 C17       -14.4014    13.1960   -12.8601 C.ar       1  LIG1  -0.1900
     26 C18       -15.1794    12.3191   -13.5969 C.ar       1  LIG1   0.1600
     27 F2        -15.2766    11.0247   -13.2222 F          1  LIG1  -0.1200
     28 C19       -15.8626    12.7688   -14.7127 C.ar       1  LIG1  -0.1700
     29 H4        -22.7539    17.9592   -19.1509 H          1  LIG1   0.0800
     30 H5        -23.0574    17.0662   -20.6605 H          1  LIG1   0.0600
     31 H6        -22.7794    16.1794   -19.1425 H          1  LIG1   0.0700
     32 H7        -19.0175    17.2877   -21.8213 H          1  LIG1   0.1200
     33 H8        -18.4012    19.2834   -23.1253 H          1  LIG1   0.1300
     34 H9        -19.6655    21.3775   -22.8425 H          1  LIG1   0.1300
     35 H10       -21.5464    21.4755   -21.2566 H          1  LIG1   0.1300
     36 H11       -22.1656    19.4784   -19.9559 H          1  LIG1   0.1200
     37 H12       -20.3395    19.0362   -18.3958 H          1  LIG1   0.3900
     38 H13       -18.5303    16.3448   -19.8146 H          1  LIG1   0.1500
     39 H14       -18.3916    18.0184   -19.2245 H          1  LIG1   0.1400
     40 H15       -17.3387    17.2778   -15.9415 H          1  LIG1   0.1200
     41 H16       -17.3152    18.4504   -17.2805 H          1  LIG1   0.1300
     42 H17       -18.8615    17.9859   -16.5312 H          1  LIG1   0.1400
     43 H18       -16.7785    15.2428   -18.8974 H          1  LIG1   0.1600
     44 H19       -16.1195    16.8758   -18.6388 H          1  LIG1   0.1700
     45 H20       -17.2819    14.1400   -16.4904 H          1  LIG1   0.4300
     46 H21       -14.8979    16.0109   -14.6580 H          1  LIG1   0.1500
     47 H22       -13.8725    12.8444   -11.9864 H          1  LIG1   0.1600
     48 H23       -16.4693    12.0845   -15.2871 H          1  LIG1   0.1600
@<TRIPOS>BOND
     1    1    2 1
     2    1   29 1
     3    1   30 1
     4    1   31 1
     5    2    3 1
     6    2    4 1
     7    2   10 1
     8    4    9 ar
     9    4    5 ar
    10    5    6 ar
    11    5   32 1
    12    6    7 ar
    13    6   33 1
    14    7    8 ar
    15    7   34 1
    16    8    9 ar
    17    8   35 1
    18    9   36 1
    19   10   11 1
    20   10   12 1
    21   10   13 1
    22   12   37 1
    23   13   14 1
    24   13   38 1
    25   13   39 1
    26   14   15 1
    27   14   16 1
    28   14   17 1
    29   16   40 1
    30   16   41 1
    31   16   42 1
    32   17   18 1
    33   17   43 1
    34   17   44 1
    35   18   19 2
    36   18   20 am
    37   20   21 1
    38   20   45 1
    39   21   28 ar
    40   21   22 ar
    41   22   23 ar
    42   22   46 1
    43   23   24 1
    44   23   25 ar
    45   25   26 ar
    46   25   47 1
    47   26   27 1
    48   26   28 ar
    49   28   48 1
##########                 Name:     ZINC000640099740
##########          Protonation:                 none
##########               SMILES:   CC1=C(C)C2=C(NC(C[N@@H+]3CC[C@H](O)[C@H]4CCCC[C@@H]43)=NC2=O)S1
##########            Long Name:   NO_LONG_NAME
##########          FlexRecCode: 1
##########               Number:                 2215
##########   Ligand Source File: /nfs/db/export/3D/EG/ADMO/EGADMO.xaph.db2.gz
##########                 Rank:                    1
##########               Setnum:                   14
##########             Matchnum:                    1
##########                Cloud:                    1
##########        Electrostatic:           -56.535080
##########                 Gist:             0.000000
##########        Van der Waals:           -28.600948
##########  Ligand Polar Desolv:            17.854231
########## Ligand Apolar Desolv:            -4.265452
##########      Internal Energy:             0.000000
##########      Receptor Energy:             0.000000
########## Receptor Desolvation:             0.000000
########## Receptor Hydrophobic:             0.000000
##########         Total Energy:           -71.547256
##########        Ligand Charge:             1.000000
##########            Arbitrary:    +999.9990
##########        Ligand Energy:             0.000000

@<TRIPOS>MOLECULE
 ZINC000640099740      none
   50    53     0     0     0



@<TRIPOS>ATOM
      1 C1        -13.8819    12.8438   -12.4387 C.3        1  LIG1  -0.0900
      2 C2        -14.5842    13.7425   -13.4238 C.2        1  LIG1  -0.1800
      3 C3        -14.2316    14.9885   -13.6804 C.2        1  LIG1  -0.0400
      4 C4        -13.0652    15.6588   -13.0013 C.3        1  LIG1  -0.1000
      5 C5        -15.0532    15.6611   -14.6664 C.2        1  LIG1  -0.1900
      6 C6        -16.0634    14.8461   -15.1513 C.2        1  LIG1   0.0300
      7 N1        -16.9279    15.3502   -16.0985 N.pl3      1  LIG1  -0.5600
      8 C7        -16.8027    16.6075   -16.5511 C.2        1  LIG1   0.4200
      9 C8        -17.7775    17.1036   -17.5878 C.3        1  LIG1   0.0300
     10 N2        -17.9496    16.0802   -18.6275 N.4        1  LIG1  -0.3600
     11 H1        -18.3047    15.2334   -18.2090 H          1  LIG1   0.4400
     12 C9        -16.6542    15.8054   -19.2606 C.3        1  LIG1  -0.0200
     13 C10       -16.0739    17.1022   -19.8286 C.3        1  LIG1  -0.1800
     14 C11       -17.0409    17.6756   -20.8684 C.3        1  LIG1   0.1000
     15 H2        -17.1388    16.9769   -21.6995 H          1  LIG1   0.0800
     16 O1        -16.5396    18.9240   -21.3503 O.3        1  LIG1  -0.5500
     17 C12       -18.4092    17.8891   -20.2149 C.3        1  LIG1  -0.1000
     18 H3        -18.3203    18.6258   -19.4165 H          1  LIG1   0.1000
     19 C13       -19.4019    18.3910   -21.2653 C.3        1  LIG1  -0.1100
     20 C14       -20.7712    18.5981   -20.6148 C.3        1  LIG1  -0.1300
     21 C15       -21.2673    17.2709   -20.0373 C.3        1  LIG1  -0.1200
     22 C16       -20.2744    16.7687   -18.9870 C.3        1  LIG1  -0.1400
     23 C17       -18.9019    16.5632   -19.6346 C.3        1  LIG1   0.0300
     24 H4        -18.9853    15.8294   -20.4362 H          1  LIG1   0.1500
     25 N3        -15.8715    17.4170   -16.1294 N.2        1  LIG1  -0.6000
     26 C18       -14.9737    17.0327   -15.2074 C.2        1  LIG1   0.5500
     27 O2        -14.1085    17.8033   -14.8232 O.2        1  LIG1  -0.4600
     28 S1        -15.9724    13.2675   -14.3848 S.3        1  LIG1   0.2100
     29 H5        -13.0547    13.3848   -11.9791 H          1  LIG1   0.0700
     30 H6        -14.5850    12.5310   -11.6667 H          1  LIG1   0.0900
     31 H7        -13.4979    11.9656   -12.9578 H          1  LIG1   0.0900
     32 H8        -12.9670    16.6795   -13.3710 H          1  LIG1   0.0800
     33 H9        -13.2332    15.6772   -11.9244 H          1  LIG1   0.0800
     34 H10       -12.1516    15.1047   -13.2171 H          1  LIG1   0.0800
     35 H11       -17.6383    14.7872   -16.4440 H          1  LIG1   0.4300
     36 H12       -18.7386    17.3065   -17.1152 H          1  LIG1   0.1700
     37 H13       -17.3939    18.0187   -18.0387 H          1  LIG1   0.1700
     38 H14       -15.9682    15.3947   -18.5198 H          1  LIG1   0.1600
     39 H15       -16.7901    15.0848   -20.0670 H          1  LIG1   0.1400
     40 H16       -15.9365    17.8232   -19.0227 H          1  LIG1   0.0900
     41 H17       -15.1132    16.8952   -20.3001 H          1  LIG1   0.1200
     42 H18       -17.1035    19.3446   -22.0137 H          1  LIG1   0.3900
     43 H19       -19.0484    19.3363   -21.6769 H          1  LIG1   0.0900
     44 H20       -19.4872    17.6554   -22.0652 H          1  LIG1   0.0700
     45 H21       -20.6859    19.3333   -19.8147 H          1  LIG1   0.0700
     46 H22       -21.4785    18.9557   -21.3631 H          1  LIG1   0.0800
     47 H23       -22.2428    17.4184   -19.5739 H          1  LIG1   0.0900
     48 H24       -21.3527    16.5357   -20.8375 H          1  LIG1   0.0800
     49 H25       -20.1892    17.5039   -18.1867 H          1  LIG1   0.0800
     50 H26       -20.6280    15.8233   -18.5756 H          1  LIG1   0.0900
@<TRIPOS>BOND
     1    1    2 1
     2    1   29 1
     3    1   30 1
     4    1   31 1
     5    2   28 1
     6    2    3 2
     7    3    4 1
     8    3    5 1
     9    4   32 1
    10    4   33 1
    11    4   34 1
    12    5   26 1
    13    5    6 2
    14    6    7 1
    15    6   28 1
    16    7    8 1
    17    7   35 1
    18    8    9 1
    19    8   25 2
    20    9   10 1
    21    9   36 1
    22    9   37 1
    23   10   11 1
    24   10   23 1
    25   10   12 1
    26   12   13 1
    27   12   38 1
    28   12   39 1
    29   13   14 1
    30   13   40 1
    31   13   41 1
    32   14   15 1
    33   14   16 1
    34   14   17 1
    35   16   42 1
    36   17   18 1
    37   17   23 1
    38   17   19 1
    39   19   20 1
    40   19   43 1
    41   19   44 1
    42   20   21 1
    43   20   45 1
    44   20   46 1
    45   21   22 1
    46   21   47 1
    47   21   48 1
    48   22   23 1
    49   22   49 1
    50   22   50 1
    51   23   24 1
    52   25   26 1
    53   26   27 2
##########                 Name:     ZINC000433175971
##########          Protonation:                 none
##########               SMILES:   OCCN(CC1=NC=C(C2=CC=CC=C2F)O1)[C@H]1CCCSC1
##########            Long Name:   NO_LONG_NAME
##########          FlexRecCode: 1
##########               Number:                14019
##########   Ligand Source File: /nfs/db/export/3D/EG/ADRO/EGADRO.xcjo.db2.gz
##########                 Rank:                    1
##########               Setnum:                  368
##########             Matchnum:                    1
##########                Cloud:                    1
##########        Electrostatic:           -40.077354
##########                 Gist:             0.000000
##########        Van der Waals:           -32.541138
##########  Ligand Polar Desolv:            12.200966
########## Ligand Apolar Desolv:            -3.565348
##########      Internal Energy:             0.000000
##########      Receptor Energy:             0.000000
########## Receptor Desolvation:             0.000000
########## Receptor Hydrophobic:             0.000000
##########         Total Energy:           -63.982872
##########        Ligand Charge:             1.000000
##########            Arbitrary:    +999.9990
##########        Ligand Energy:             0.000000

@<TRIPOS>MOLECULE
 ZINC000433175971      none
   45    47     0     0     0



@<TRIPOS>ATOM
      1 O1        -16.9696    14.4430   -18.9040 O.3        1  LIG1  -0.5600
      2 C1        -16.5329    15.7764   -19.1744 C.3        1  LIG1   0.0500
      3 C2        -17.7442    16.6544   -19.4954 C.3        1  LIG1  -0.0200
      4 N1        -18.6609    16.6625   -18.3475 N.4        1  LIG1  -0.3800
      5 H1        -18.7113    15.7361   -17.9508 H          1  LIG1   0.4200
      6 C3        -18.1673    17.6035   -17.3332 C.3        1  LIG1   0.1000
      7 C4        -17.0688    16.9505   -16.5345 C.2        1  LIG1   0.1100
      8 N2        -15.9371    17.5084   -16.2073 N.2        1  LIG1  -0.4000
      9 C5        -15.2092    16.6320   -15.4988 C.2        1  LIG1  -0.0100
     10 C6        -15.9352    15.4895   -15.3925 C.2        1  LIG1   0.0500
     11 C7        -15.5307    14.2502   -14.6956 C.ar       1  LIG1  -0.0800
     12 C8        -15.9935    13.0122   -15.1422 C.ar       1  LIG1  -0.0600
     13 C9        -15.6119    11.8588   -14.4876 C.ar       1  LIG1  -0.1300
     14 C10       -14.7724    11.9270   -13.3901 C.ar       1  LIG1  -0.0600
     15 C11       -14.3088    13.1504   -12.9405 C.ar       1  LIG1  -0.1500
     16 C12       -14.6780    14.3130   -13.5897 C.ar       1  LIG1   0.1300
     17 F1        -14.2246    15.5074   -13.1505 F          1  LIG1  -0.1300
     18 O2        -17.1005    15.7047   -16.0415 O.3        1  LIG1  -0.1900
     19 C13       -19.9980    17.0782   -18.7915 C.3        1  LIG1   0.0200
     20 H2        -20.5729    17.4252   -17.9329 H          1  LIG1   0.1600
     21 C14       -19.8657    18.2118   -19.8044 C.3        1  LIG1  -0.1600
     22 C15       -21.2247    18.8462   -20.0854 C.3        1  LIG1  -0.1200
     23 C16       -22.0966    17.8785   -20.8900 C.3        1  LIG1  -0.1100
     24 S1        -22.3992    16.3911   -19.8902 S.3        1  LIG1  -0.1800
     25 C17       -20.7134    15.8870   -19.4343 C.3        1  LIG1  -0.1300
     26 H3        -17.5791    14.3727   -18.1566 H          1  LIG1   0.4000
     27 H4        -16.0173    16.1742   -18.3003 H          1  LIG1   0.0700
     28 H5        -15.8527    15.7704   -20.0260 H          1  LIG1   0.1000
     29 H6        -17.4112    17.6717   -19.7016 H          1  LIG1   0.1500
     30 H7        -18.2598    16.2567   -20.3694 H          1  LIG1   0.1400
     31 H8        -17.7786    18.4957   -17.8239 H          1  LIG1   0.1900
     32 H9        -18.9843    17.8817   -16.6674 H          1  LIG1   0.1500
     33 H10       -14.2252    16.8037   -15.0883 H          1  LIG1   0.2000
     34 H11       -16.6495    12.9565   -15.9983 H          1  LIG1   0.1400
     35 H12       -15.9698    10.9002   -14.8329 H          1  LIG1   0.1400
     36 H13       -14.4779    11.0208   -12.8817 H          1  LIG1   0.1500
     37 H14       -13.6537    13.1966   -12.0832 H          1  LIG1   0.1500
     38 H15       -19.1908    18.9703   -19.4079 H          1  LIG1   0.1000
     39 H16       -19.4549    17.8170   -20.7335 H          1  LIG1   0.0900
     40 H17       -21.7180    19.0782   -19.1415 H          1  LIG1   0.0900
     41 H18       -21.0844    19.7652   -20.6542 H          1  LIG1   0.1000
     42 H19       -23.0463    18.3563   -21.1305 H          1  LIG1   0.1200
     43 H20       -21.5818    17.6016   -21.8100 H          1  LIG1   0.1000
     44 H21       -20.1726    15.5716   -20.3265 H          1  LIG1   0.1100
     45 H22       -20.7587    15.0630   -18.7220 H          1  LIG1   0.1300
@<TRIPOS>BOND
     1    1    2 1
     2    1   26 1
     3    2    3 1
     4    2   27 1
     5    2   28 1
     6    3    4 1
     7    3   29 1
     8    3   30 1
     9    4    5 1
    10    4    6 1
    11    4   19 1
    12    6    7 1
    13    6   31 1
    14    6   32 1
    15    7   18 1
    16    7    8 2
    17    8    9 1
    18    9   10 2
    19    9   33 1
    20   10   11 1
    21   10   18 1
    22   11   16 ar
    23   11   12 ar
    24   12   13 ar
    25   12   34 1
    26   13   14 ar
    27   13   35 1
    28   14   15 ar
    29   14   36 1
    30   15   16 ar
    31   15   37 1
    32   16   17 1
    33   19   20 1
    34   19   25 1
    35   19   21 1
    36   21   22 1
    37   21   38 1
    38   21   39 1
    39   22   23 1
    40   22   40 1
    41   22   41 1
    42   23   24 1
    43   23   42 1
    44   23   43 1
    45   24   25 1
    46   25   44 1
    47   25   45 1
##########                 Name:     ZINC000154146881
##########          Protonation:                 none
##########               SMILES:   COC1=CC=C(CNC(=O)C[N@H+](C)[C@H]2CCSC2)C(OC)=C1
##########            Long Name:   NO_LONG_NAME
##########          FlexRecCode: 1
##########               Number:                 1150
##########   Ligand Source File: /nfs/db/export/3D/DD/ADRO/DDADRO.xbbt.db2.gz
##########                 Rank:                    1
##########               Setnum:                   79
##########             Matchnum:                    1
##########                Cloud:                    1
##########        Electrostatic:           -47.226669
##########                 Gist:             0.000000
##########        Van der Waals:           -32.536694
##########  Ligand Polar Desolv:            17.497561
########## Ligand Apolar Desolv:            -3.707281
##########      Internal Energy:             0.000000
##########      Receptor Energy:             0.000000
########## Receptor Desolvation:             0.000000
########## Receptor Hydrophobic:             0.000000
##########         Total Energy:           -65.973083
##########        Ligand Charge:             1.000000
##########            Arbitrary:    +999.9990
##########        Ligand Energy:             0.000000

@<TRIPOS>MOLECULE
 ZINC000154146881      none
   47    48     0     0     0



@<TRIPOS>ATOM
      1 C1        -14.4956    10.8435   -12.0344 C.3        1  LIG1   0.0200
      2 O1        -15.3390    10.8239   -13.1878 O.3        1  LIG1  -0.3100
      3 C2        -15.4270    11.9734   -13.9073 C.ar       1  LIG1   0.1900
      4 C3        -16.2325    12.0261   -15.0358 C.ar       1  LIG1  -0.2500
      5 C4        -16.3220    13.1947   -15.7681 C.ar       1  LIG1  -0.0200
      6 C5        -15.6102    14.3129   -15.3788 C.ar       1  LIG1  -0.2000
      7 C6        -15.7098    15.5854   -16.1800 C.3        1  LIG1   0.1800
      8 N1        -17.1137    15.8487   -16.5059 N.am       1  LIG1  -0.6900
      9 C7        -17.5450    17.1170   -16.6529 C.2        1  LIG1   0.5000
     10 O2        -16.7708    18.0405   -16.5152 O.2        1  LIG1  -0.5300
     11 C8        -18.9890    17.3878   -16.9880 C.3        1  LIG1  -0.0400
     12 N2        -19.3227    16.7490   -18.2680 N.4        1  LIG1  -0.3700
     13 H1        -19.1753    15.7535   -18.1956 H          1  LIG1   0.4300
     14 C9        -18.4635    17.2956   -19.3267 C.3        1  LIG1  -0.0600
     15 C10       -20.7304    17.0128   -18.5947 C.3        1  LIG1   0.0200
     16 H2        -20.8922    18.0879   -18.6734 H          1  LIG1   0.1500
     17 C11       -21.0859    16.3379   -19.9308 C.3        1  LIG1  -0.1500
     18 C12       -22.6319    16.3692   -20.0548 C.3        1  LIG1  -0.0800
     19 S1        -23.1661    15.9304   -18.3554 S.3        1  LIG1  -0.2100
     20 C13       -21.6362    16.4326   -17.4888 C.3        1  LIG1  -0.1200
     21 C14       -14.8038    14.2655   -14.2502 C.ar       1  LIG1   0.1900
     22 O3        -14.1041    15.3658   -13.8675 O.3        1  LIG1  -0.3100
     23 C15       -13.2946    15.2449   -12.6961 C.3        1  LIG1   0.0200
     24 C16       -14.7164    13.0961   -13.5110 C.ar       1  LIG1  -0.2500
     25 H3        -14.5155     9.8656   -11.5531 H          1  LIG1   0.0600
     26 H4        -13.4747    11.0798   -12.3346 H          1  LIG1   0.0600
     27 H5        -14.8530    11.5997   -11.3355 H          1  LIG1   0.1100
     28 H6        -16.7897    11.1533   -15.3423 H          1  LIG1   0.1400
     29 H7        -16.9493    13.2337   -16.6465 H          1  LIG1   0.1400
     30 H8        -15.3107    16.4147   -15.5960 H          1  LIG1   0.0900
     31 H9        -15.1364    15.4807   -17.1011 H          1  LIG1   0.0900
     32 H10       -17.7326    15.1101   -16.6161 H          1  LIG1   0.4100
     33 H11       -19.6266    16.9823   -16.2024 H          1  LIG1   0.1600
     34 H12       -19.1484    18.4633   -17.0663 H          1  LIG1   0.1600
     35 H13       -18.7112    16.8216   -20.2765 H          1  LIG1   0.1200
     36 H14       -18.6230    18.3711   -19.4049 H          1  LIG1   0.1500
     37 H15       -17.4191    17.0998   -19.0844 H          1  LIG1   0.1300
     38 H16       -20.6347    16.8874   -20.7570 H          1  LIG1   0.1200
     39 H17       -20.7328    15.3065   -19.9324 H          1  LIG1   0.1100
     40 H18       -22.9795    17.3661   -20.3256 H          1  LIG1   0.1100
     41 H19       -22.9786    15.6274   -20.7743 H          1  LIG1   0.1300
     42 H20       -21.1630    15.5688   -17.0217 H          1  LIG1   0.1100
     43 H21       -21.8553    17.1966   -16.7428 H          1  LIG1   0.1300
     44 H22       -12.7915    16.1923   -12.5028 H          1  LIG1   0.0600
     45 H23       -13.9241    14.9873   -11.8444 H          1  LIG1   0.0600
     46 H24       -12.5507    14.4629   -12.8478 H          1  LIG1   0.1100
     47 H25       -14.0894    13.0572   -12.6324 H          1  LIG1   0.1400
@<TRIPOS>BOND
     1    1    2 1
     2    1   25 1
     3    1   26 1
     4    1   27 1
     5    2    3 1
     6    3   24 ar
     7    3    4 ar
     8    4    5 ar
     9    4   28 1
    10    5    6 ar
    11    5   29 1
    12    6    7 1
    13    6   21 ar
    14    7    8 1
    15    7   30 1
    16    7   31 1
    17    8    9 am
    18    8   32 1
    19    9   10 2
    20    9   11 1
    21   11   12 1
    22   11   33 1
    23   11   34 1
    24   12   13 1
    25   12   14 1
    26   12   15 1
    27   14   35 1
    28   14   36 1
    29   14   37 1
    30   15   16 1
    31   15   20 1
    32   15   17 1
    33   17   18 1
    34   17   38 1
    35   17   39 1
    36   18   19 1
    37   18   40 1
    38   18   41 1
    39   19   20 1
    40   20   42 1
    41   20   43 1
    42   21   22 1
    43   21   24 ar
    44   22   23 1
    45   23   44 1
    46   23   45 1
    47   23   46 1
    48   24   47 1
##########                 Name:     ZINC000155613934
##########          Protonation:                 none
##########               SMILES:   CC(C)OC(=O)[C@H](C)N(C)C[C@H](O)CC1=CC=CC=C1C(F)(F)F
##########            Long Name:   NO_LONG_NAME
##########          FlexRecCode: 1
##########               Number:                 7281
##########   Ligand Source File: /nfs/db/export/3D/EF/ADRO/EFADRO.xccw.db2.gz
##########                 Rank:                    1
##########               Setnum:                   17
##########             Matchnum:                    1
##########                Cloud:                    1
##########        Electrostatic:           -51.233566
##########                 Gist:             0.000000
##########        Van der Waals:           -28.527115
##########  Ligand Polar Desolv:            13.075386
########## Ligand Apolar Desolv:            -4.770401
##########      Internal Energy:             0.000000
##########      Receptor Energy:             0.000000
########## Receptor Desolvation:             0.000000
########## Receptor Hydrophobic:             0.000000
##########         Total Energy:           -71.455696
##########        Ligand Charge:             1.000000
##########            Arbitrary:    +999.9990
##########        Ligand Energy:             0.000000

@<TRIPOS>MOLECULE
 ZINC000155613934      none
   49    49     0     0     0



@<TRIPOS>ATOM
      1 C1        -14.3378    19.0525   -19.7197 C.3        1  LIG1  -0.1600
      2 C2        -15.7105    19.6771   -19.9770 C.3        1  LIG1   0.0900
      3 C3        -15.7732    20.1962   -21.4148 C.3        1  LIG1  -0.1800
      4 O1        -16.7428    18.6756   -19.7787 O.3        1  LIG1  -0.3300
      5 C4        -17.2526    18.5624   -18.5421 C.2        1  LIG1   0.4600
      6 O2        -16.8496    19.2766   -17.6547 O.2        1  LIG1  -0.4900
      7 C5        -18.3278    17.5447   -18.2604 C.3        1  LIG1   0.0300
      8 H1        -18.9231    17.3866   -19.1597 H          1  LIG1   0.1700
      9 C6        -19.2299    18.0541   -17.1346 C.3        1  LIG1  -0.1800
     10 N1        -17.7073    16.2763   -17.8549 N.4        1  LIG1  -0.3700
     11 H2        -18.3840    15.7137   -17.3611 H          1  LIG1   0.4400
     12 C7        -17.2466    15.5533   -19.0478 C.3        1  LIG1  -0.0600
     13 C8        -16.5630    16.5500   -16.9756 C.3        1  LIG1  -0.0600
     14 C9        -16.2292    15.2946   -16.1672 C.3        1  LIG1   0.0800
     15 H3        -15.9783    14.4805   -16.8472 H          1  LIG1   0.1400
     16 O3        -17.3599    14.9230   -15.3760 O.3        1  LIG1  -0.5400
     17 C10       -15.0374    15.5797   -15.2511 C.3        1  LIG1  -0.1300
     18 C11       -14.7088    14.3432   -14.4549 C.ar       1  LIG1  -0.0400
     19 C12       -15.4514    13.1907   -14.6303 C.ar       1  LIG1  -0.1000
     20 C13       -15.1499    12.0563   -13.8997 C.ar       1  LIG1  -0.0800
     21 C14       -14.1058    12.0746   -12.9942 C.ar       1  LIG1  -0.1100
     22 C15       -13.3625    13.2272   -12.8195 C.ar       1  LIG1  -0.0700
     23 C16       -13.6611    14.3599   -13.5529 C.ar       1  LIG1  -0.1900
     24 C17       -12.8509    15.6162   -13.3623 C.3        1  LIG1   0.5100
     25 F1        -13.3451    16.6214   -14.2007 F          1  LIG1  -0.1700
     26 F2        -12.9432    16.0330   -12.0301 F          1  LIG1  -0.1900
     27 F3        -11.5126    15.3607   -13.6793 F          1  LIG1  -0.1700
     28 H4        -14.2931    18.6826   -18.6954 H          1  LIG1   0.0900
     29 H5        -14.1794    18.2255   -20.4118 H          1  LIG1   0.0700
     30 H6        -13.5628    19.8044   -19.8686 H          1  LIG1   0.0800
     31 H7        -15.8688    20.5041   -19.2849 H          1  LIG1   0.0900
     32 H8        -16.7513    20.6413   -21.5981 H          1  LIG1   0.0900
     33 H9        -14.9984    20.9482   -21.5639 H          1  LIG1   0.0700
     34 H10       -15.6148    19.3693   -22.1071 H          1  LIG1   0.0600
     35 H11       -20.0075    17.3180   -16.9308 H          1  LIG1   0.1200
     36 H12       -18.6346    18.2120   -16.2352 H          1  LIG1   0.1100
     37 H13       -19.6903    18.9951   -17.4355 H          1  LIG1   0.0900
     38 H14       -16.7862    14.6121   -18.7468 H          1  LIG1   0.1300
     39 H15       -18.0957    15.3501   -19.7001 H          1  LIG1   0.1300
     40 H16       -16.5156    16.1610   -19.5812 H          1  LIG1   0.1300
     41 H17       -15.7007    16.8334   -17.5791 H          1  LIG1   0.1500
     42 H18       -16.8138    17.3641   -16.2955 H          1  LIG1   0.1300
     43 H19       -18.1539    14.7275   -15.8921 H          1  LIG1   0.3900
     44 H20       -14.1749    15.8631   -15.8546 H          1  LIG1   0.1000
     45 H21       -15.2883    16.3938   -14.5712 H          1  LIG1   0.1000
     46 H22       -16.2672    13.1764   -15.3377 H          1  LIG1   0.1300
     47 H23       -15.7306    11.1559   -14.0362 H          1  LIG1   0.1400
     48 H24       -13.8708    11.1886   -12.4230 H          1  LIG1   0.1400
     49 H25       -12.5469    13.2416   -12.1117 H          1  LIG1   0.1400
@<TRIPOS>BOND
     1    1    2 1
     2    1   28 1
     3    1   29 1
     4    1   30 1
     5    2    3 1
     6    2    4 1
     7    2   31 1
     8    3   32 1
     9    3   33 1
    10    3   34 1
    11    4    5 1
    12    5    6 2
    13    5    7 1
    14    7    8 1
    15    7    9 1
    16    7   10 1
    17    9   35 1
    18    9   36 1
    19    9   37 1
    20   10   11 1
    21   10   12 1
    22   10   13 1
    23   12   38 1
    24   12   39 1
    25   12   40 1
    26   13   14 1
    27   13   41 1
    28   13   42 1
    29   14   15 1
    30   14   16 1
    31   14   17 1
    32   16   43 1
    33   17   18 1
    34   17   44 1
    35   17   45 1
    36   18   23 ar
    37   18   19 ar
    38   19   20 ar
    39   19   46 1
    40   20   21 ar
    41   20   47 1
    42   21   22 ar
    43   21   48 1
    44   22   23 ar
    45   22   49 1
    46   23   24 1
    47   24   25 1
    48   24   26 1
    49   24   27 1
##########                 Name:     ZINC000451982669
##########          Protonation:                 none
##########               SMILES:   C[C@@H](C(=O)NC1=CC=CC([N+](=O)[O-])=C1)[N@H+]1CCC[C@]2(CCSC2)C1
##########            Long Name:   NO_LONG_NAME
##########          FlexRecCode: 1
##########               Number:                12050
##########   Ligand Source File: /nfs/db/export/3D/EG/BDMO/EGBDMO.xaj.db2.gz
##########                 Rank:                    1
##########               Setnum:                  155
##########             Matchnum:                    1
##########                Cloud:                    1
##########        Electrostatic:           -47.624043
##########                 Gist:             0.000000
##########        Van der Waals:           -33.226807
##########  Ligand Polar Desolv:            21.958063
########## Ligand Apolar Desolv:            -5.972713
##########      Internal Energy:             0.000000
##########      Receptor Energy:             0.000000
########## Receptor Desolvation:             0.000000
########## Receptor Hydrophobic:             0.000000
##########         Total Energy:           -64.865494
##########        Ligand Charge:             1.000000
##########            Arbitrary:    +999.9990
##########        Ligand Energy:             0.000000

@<TRIPOS>MOLECULE
 ZINC000451982669      none
   48    50     0     0     0



@<TRIPOS>ATOM
      1 C1        -16.4235    16.8822   -20.1534 C.3        1  LIG1  -0.1800
      2 C2        -17.0810    15.8817   -19.2007 C.3        1  LIG1   0.0100
      3 H1        -17.2125    14.9272   -19.7105 H          1  LIG1   0.1700
      4 C3        -16.2034    15.6886   -17.9910 C.2        1  LIG1   0.5000
      5 O1        -15.1552    16.2919   -17.8998 O.2        1  LIG1  -0.5000
      6 N1        -16.5834    14.8457   -17.0104 N.am       1  LIG1  -0.6400
      7 C4        -15.7685    14.6664   -15.8871 C.ar       1  LIG1   0.1200
      8 C5        -14.9627    15.7048   -15.4394 C.ar       1  LIG1  -0.0800
      9 C6        -14.1592    15.5246   -14.3302 C.ar       1  LIG1  -0.0900
     10 C7        -14.1567    14.3119   -13.6663 C.ar       1  LIG1  -0.0500
     11 C8        -14.9580    13.2755   -14.1100 C.ar       1  LIG1  -0.0200
     12 N2        -14.9519    11.9787   -13.3965 N.pl3      1  LIG1   0.0200
     13 O2        -14.2415    11.8246   -12.4192 O.2        1  LIG1  -0.1400
     14 O3        -15.6571    11.0657   -13.7867 O.2        1  LIG1  -0.1500
     15 C9        -15.7683    13.4514   -15.2142 C.ar       1  LIG1  -0.0600
     16 N3        -18.4228    16.4083   -18.7683 N.4        1  LIG1  -0.3700
     17 H2        -18.8373    15.7023   -18.1235 H          1  LIG1   0.4300
     18 C10       -18.2871    17.6933   -17.9915 C.3        1  LIG1  -0.0100
     19 C11       -19.6518    18.1278   -17.4823 C.3        1  LIG1  -0.1500
     20 C12       -20.6708    18.2403   -18.6144 C.3        1  LIG1  -0.1300
     21 C13       -20.7771    16.9446   -19.4580 C.3        1  LIG1  -0.0700
     22 C14       -21.4523    15.7859   -18.6899 C.3        1  LIG1  -0.1500
     23 C15       -22.9358    16.0970   -18.5581 C.3        1  LIG1  -0.0700
     24 S1        -23.3938    16.8912   -20.1191 S.3        1  LIG1  -0.2500
     25 C16       -21.6874    17.1641   -20.6820 C.3        1  LIG1  -0.0700
     26 C17       -19.3684    16.5466   -19.9396 C.3        1  LIG1   0.0000
     27 H3        -16.2920    17.8367   -19.6438 H          1  LIG1   0.0900
     28 H4        -15.4516    16.5008   -20.4666 H          1  LIG1   0.1100
     29 H5        -17.0581    17.0219   -21.0284 H          1  LIG1   0.1100
     30 H6        -17.4218    14.3634   -17.0833 H          1  LIG1   0.4300
     31 H7        -14.9637    16.6520   -15.9581 H          1  LIG1   0.1500
     32 H8        -13.5323    16.3319   -13.9816 H          1  LIG1   0.1600
     33 H9        -13.5275    14.1734   -12.7996 H          1  LIG1   0.1600
     34 H10       -16.3939    12.6419   -15.5600 H          1  LIG1   0.1700
     35 H11       -17.6116    17.5191   -17.1583 H          1  LIG1   0.1400
     36 H12       -17.8726    18.4499   -18.6522 H          1  LIG1   0.1300
     37 H13       -20.0148    17.3988   -16.7395 H          1  LIG1   0.0900
     38 H14       -19.5611    19.1040   -16.9783 H          1  LIG1   0.1200
     39 H15       -21.6658    18.4724   -18.1928 H          1  LIG1   0.1000
     40 H16       -20.3905    19.0762   -19.2809 H          1  LIG1   0.0900
     41 H17       -21.3033    14.8608   -19.2455 H          1  LIG1   0.0900
     42 H18       -20.9909    15.6987   -17.7069 H          1  LIG1   0.0900
     43 H19       -23.5250    15.1644   -18.3892 H          1  LIG1   0.1200
     44 H20       -23.1261    16.7705   -17.6889 H          1  LIG1   0.1000
     45 H21       -21.5627    18.1878   -21.0608 H          1  LIG1   0.1100
     46 H22       -21.4222    16.4527   -21.4763 H          1  LIG1   0.1100
     47 H23       -18.9771    17.3098   -20.6112 H          1  LIG1   0.1300
     48 H24       -19.4110    15.5904   -20.4596 H          1  LIG1   0.1400
@<TRIPOS>BOND
     1    1    2 1
     2    1   27 1
     3    1   28 1
     4    1   29 1
     5    2    3 1
     6    2    4 1
     7    2   16 1
     8    4    5 2
     9    4    6 am
    10    6    7 1
    11    6   30 1
    12    7   15 ar
    13    7    8 ar
    14    8    9 ar
    15    8   31 1
    16    9   10 ar
    17    9   32 1
    18   10   11 ar
    19   10   33 1
    20   11   12 1
    21   11   15 ar
    22   12   13 2
    23   12   14 2
    24   15   34 1
    25   16   17 1
    26   16   26 1
    27   16   18 1
    28   18   19 1
    29   18   35 1
    30   18   36 1
    31   19   20 1
    32   19   37 1
    33   19   38 1
    34   20   21 1
    35   20   39 1
    36   20   40 1
    37   21   25 1
    38   21   22 1
    39   21   26 1
    40   22   23 1
    41   22   41 1
    42   22   42 1
    43   23   24 1
    44   23   43 1
    45   23   44 1
    46   24   25 1
    47   25   45 1
    48   25   46 1
    49   26   47 1
    50   26   48 1
##########                 Name:     ZINC000412694364
##########          Protonation:                 none
##########               SMILES:   C[C@H]1CN(C(=O)C2=CN(CCF)N=C2)CC[N@H+]1CC1=CC=CC=C1
##########            Long Name:   NO_LONG_NAME
##########          FlexRecCode: 1
##########               Number:                12294
##########   Ligand Source File: /nfs/db/export/3D/EE/ADMO/EEADMO.xahn.db2.gz
##########                 Rank:                    1
##########               Setnum:                  102
##########             Matchnum:                    1
##########                Cloud:                    1
##########        Electrostatic:           -44.420364
##########                 Gist:             0.000000
##########        Van der Waals:           -33.276184
##########  Ligand Polar Desolv:            17.174072
########## Ligand Apolar Desolv:            -5.215384
##########      Internal Energy:             0.000000
##########      Receptor Energy:             0.000000
########## Receptor Desolvation:             0.000000
########## Receptor Hydrophobic:             0.000000
##########         Total Energy:           -65.737862
##########        Ligand Charge:             1.000000
##########            Arbitrary:    +999.9990
##########        Ligand Energy:             0.000000

@<TRIPOS>MOLECULE
 ZINC000412694364      none
   48    50     0     0     0



@<TRIPOS>ATOM
      1 C1        -15.9146    16.9908   -19.2233 C.3        1  LIG1  -0.1800
      2 C2        -16.8257    15.9716   -18.5362 C.3        1  LIG1   0.0100
      3 H1        -16.7345    15.0074   -19.0362 H          1  LIG1   0.1500
      4 C3        -16.4138    15.8264   -17.0676 C.3        1  LIG1   0.1000
      5 N1        -16.6681    17.1038   -16.3834 N.am       1  LIG1  -0.6300
      6 C4        -15.7134    17.6915   -15.6356 C.2        1  LIG1   0.6100
      7 O1        -15.6826    18.9026   -15.5310 O.2        1  LIG1  -0.5100
      8 C5        -14.7061    16.8661   -14.9444 C.2        1  LIG1  -0.3100
      9 C6        -14.8823    15.5794   -14.4763 C.2        1  LIG1   0.1400
     10 N2        -13.7253    15.1944   -13.9142 N.pl3      1  LIG1  -0.3500
     11 C7        -13.4679    13.8944   -13.2898 C.3        1  LIG1   0.0900
     12 C8        -12.7376    14.1022   -11.9616 C.3        1  LIG1   0.0600
     13 F1        -13.5302    14.8797   -11.1103 F          1  LIG1  -0.2000
     14 N3        -12.8067    16.2440   -14.0259 N.2        1  LIG1  -0.2800
     15 C9        -13.3778    17.2415   -14.6427 C.2        1  LIG1   0.0700
     16 C10       -17.9939    17.7215   -16.5394 C.3        1  LIG1   0.0800
     17 C11       -18.3314    17.7771   -18.0330 C.3        1  LIG1  -0.0300
     18 N4        -18.2182    16.4316   -18.6100 N.4        1  LIG1  -0.3800
     19 H2        -18.8088    15.7956   -18.0956 H          1  LIG1   0.4200
     20 C12       -18.6453    16.4657   -20.0151 C.3        1  LIG1   0.0400
     21 C13       -20.0744    16.9375   -20.0944 C.ar       1  LIG1  -0.1600
     22 C14       -21.1086    16.0220   -20.0375 C.ar       1  LIG1  -0.0900
     23 C15       -22.4194    16.4548   -20.1102 C.ar       1  LIG1  -0.1100
     24 C16       -22.6961    17.8030   -20.2394 C.ar       1  LIG1  -0.0800
     25 C17       -21.6619    18.7185   -20.2954 C.ar       1  LIG1  -0.1100
     26 C18       -20.3512    18.2861   -20.2184 C.ar       1  LIG1  -0.1000
     27 H3        -16.0060    17.9549   -18.7232 H          1  LIG1   0.0800
     28 H4        -14.8810    16.6493   -19.1683 H          1  LIG1   0.1100
     29 H5        -16.2080    17.0941   -20.2680 H          1  LIG1   0.0800
     30 H6        -17.0008    15.0367   -16.5988 H          1  LIG1   0.1000
     31 H7        -15.3529    15.5835   -17.0069 H          1  LIG1   0.1400
     32 H8        -15.7850    14.9910   -14.5484 H          1  LIG1   0.1900
     33 H9        -14.4142    13.3848   -13.1084 H          1  LIG1   0.1100
     34 H10       -12.8504    13.2887   -13.9531 H          1  LIG1   0.1200
     35 H11       -12.5461    13.1349   -11.4969 H          1  LIG1   0.0800
     36 H12       -11.7913    14.6119   -12.1431 H          1  LIG1   0.0900
     37 H13       -12.9183    18.1908   -14.8753 H          1  LIG1   0.1900
     38 H14       -18.7406    17.1232   -16.0172 H          1  LIG1   0.1000
     39 H15       -17.9780    18.7315   -16.1295 H          1  LIG1   0.1400
     40 H16       -19.3499    18.1435   -18.1621 H          1  LIG1   0.1400
     41 H17       -17.6368    18.4487   -18.5377 H          1  LIG1   0.1400
     42 H18       -18.0055    17.1495   -20.5728 H          1  LIG1   0.1400
     43 H19       -18.5685    15.4661   -20.4426 H          1  LIG1   0.1400
     44 H20       -20.8925    14.9688   -19.9365 H          1  LIG1   0.1300
     45 H21       -23.2275    15.7395   -20.0664 H          1  LIG1   0.1400
     46 H22       -23.7203    18.1410   -20.2969 H          1  LIG1   0.1400
     47 H23       -21.8780    19.7718   -20.3967 H          1  LIG1   0.1400
     48 H24       -19.5432    19.0015   -20.2622 H          1  LIG1   0.1300
@<TRIPOS>BOND
     1    1    2 1
     2    1   27 1
     3    1   28 1
     4    1   29 1
     5    2    3 1
     6    2   18 1
     7    2    4 1
     8    4    5 1
     9    4   30 1
    10    4   31 1
    11    5    6 am
    12    5   16 1
    13    6    7 2
    14    6    8 1
    15    8   15 1
    16    8    9 2
    17    9   10 1
    18    9   32 1
    19   10   11 1
    20   10   14 1
    21   11   12 1
    22   11   33 1
    23   11   34 1
    24   12   13 1
    25   12   35 1
    26   12   36 1
    27   14   15 2
    28   15   37 1
    29   16   17 1
    30   16   38 1
    31   16   39 1
    32   17   18 1
    33   17   40 1
    34   17   41 1
    35   18   19 1
    36   18   20 1
    37   20   21 1
    38   20   42 1
    39   20   43 1
    40   21   26 ar
    41   21   22 ar
    42   22   23 ar
    43   22   44 1
    44   23   24 ar
    45   23   45 1
    46   24   25 ar
    47   24   46 1
    48   25   26 ar
    49   25   47 1
    50   26   48 1
##########                 Name:     ZINC000358789280
##########          Protonation:                 none
##########               SMILES:   C[C@H]([NH2+]CC(=O)NC1=CC=CC=C1C1=CC=CC=C1)C1=CNN=C1
##########            Long Name:   NO_LONG_NAME
##########          FlexRecCode: 1
##########               Number:                 1027
##########   Ligand Source File: /nfs/db/export/3D/DG/ADRO/DGADRO.xamj.db2.gz
##########                 Rank:                    1
##########               Setnum:                   69
##########             Matchnum:                    1
##########                Cloud:                    1
##########        Electrostatic:           -43.422684
##########                 Gist:             0.000000
##########        Van der Waals:           -34.799896
##########  Ligand Polar Desolv:            18.953447
########## Ligand Apolar Desolv:            -4.626637
##########      Internal Energy:             0.000000
##########      Receptor Energy:             0.000000
########## Receptor Desolvation:             0.000000
########## Receptor Hydrophobic:             0.000000
##########         Total Energy:           -63.895767
##########        Ligand Charge:             1.000000
##########            Arbitrary:    +999.9990
##########        Ligand Energy:             0.000000

@<TRIPOS>MOLECULE
 ZINC000358789280      none
   45    47     0     0     0



@<TRIPOS>ATOM
      1 C1        -18.3973    16.9008   -15.7374 C.3        1  LIG1  -0.1800
      2 C2        -17.1915    17.0883   -16.6603 C.3        1  LIG1   0.1300
      3 H1        -17.2868    18.0334   -17.1951 H          1  LIG1   0.1500
      4 N1        -17.1373    15.9825   -17.6259 N.4        1  LIG1  -0.4900
      5 H2        -16.7297    15.1714   -17.1858 H          1  LIG1   0.4400
      6 H3        -18.0714    15.7623   -17.9377 H          1  LIG1   0.4300
      7 C3        -16.3170    16.3786   -18.7784 C.3        1  LIG1  -0.0300
      8 C4        -16.9260    17.5903   -19.4357 C.2        1  LIG1   0.5000
      9 O1        -16.2898    18.6196   -19.5179 O.2        1  LIG1  -0.5100
     10 N2        -18.1774    17.5299   -19.9324 N.am       1  LIG1  -0.6400
     11 C5        -18.7421    18.6534   -20.5420 C.ar       1  LIG1   0.1300
     12 C6        -17.9339    19.5688   -21.1997 C.ar       1  LIG1  -0.1200
     13 C7        -18.4942    20.6794   -21.8013 C.ar       1  LIG1  -0.1000
     14 C8        -19.8615    20.8855   -21.7521 C.ar       1  LIG1  -0.1200
     15 C9        -20.6783    19.9826   -21.1015 C.ar       1  LIG1  -0.0900
     16 C10       -20.1263    18.8566   -20.4962 C.ar       1  LIG1  -0.0600
     17 C11       -20.9993    17.8833   -19.7964 C.ar       1  LIG1  -0.0600
     18 C12       -21.5319    16.7973   -20.4889 C.ar       1  LIG1  -0.1200
     19 C13       -22.3435    15.8943   -19.8324 C.ar       1  LIG1  -0.1200
     20 C14       -22.6285    16.0658   -18.4897 C.ar       1  LIG1  -0.1100
     21 C15       -22.1028    17.1418   -17.7974 C.ar       1  LIG1  -0.1100
     22 C16       -21.2859    18.0479   -18.4424 C.ar       1  LIG1  -0.1000
     23 C17       -15.9278    17.1009   -15.8395 C.2        1  LIG1  -0.3200
     24 C18       -15.4831    16.0982   -15.0471 C.2        1  LIG1   0.1200
     25 N3        -14.3224    16.4997   -14.4881 N.pl3      1  LIG1  -0.4500
     26 N4        -14.0446    17.7919   -14.9521 N.2        1  LIG1  -0.2600
     27 C19       -15.0042    18.1488   -15.7667 C.2        1  LIG1   0.0600
     28 H4        -18.3020    15.9557   -15.2026 H          1  LIG1   0.1100
     29 H5        -18.4375    17.7211   -15.0209 H          1  LIG1   0.0800
     30 H6        -19.3113    16.8917   -16.3311 H          1  LIG1   0.0800
     31 H7        -15.3081    16.6164   -18.4415 H          1  LIG1   0.1700
     32 H8        -16.2769    15.5581   -19.4949 H          1  LIG1   0.1700
     33 H9        -18.6862    16.7066   -19.8669 H          1  LIG1   0.4200
     34 H10       -16.8660    19.4136   -21.2412 H          1  LIG1   0.1500
     35 H11       -17.8616    21.3902   -22.3123 H          1  LIG1   0.1300
     36 H12       -20.2914    21.7565   -22.2243 H          1  LIG1   0.1300
     37 H13       -21.7450    20.1475   -21.0652 H          1  LIG1   0.1300
     38 H14       -21.3102    16.6627   -21.5373 H          1  LIG1   0.1200
     39 H15       -22.7569    15.0527   -20.3680 H          1  LIG1   0.1300
     40 H16       -23.2645    15.3570   -17.9800 H          1  LIG1   0.1300
     41 H17       -22.3288    17.2707   -16.7492 H          1  LIG1   0.1300
     42 H18       -20.8759    18.8877   -17.9010 H          1  LIG1   0.1300
     43 H19       -15.9699    15.1469   -14.8903 H          1  LIG1   0.1900
     44 H20       -13.7768    15.9847   -13.8731 H          1  LIG1   0.4500
     45 H21       -15.0751    19.0926   -16.2868 H          1  LIG1   0.1900
@<TRIPOS>BOND
     1    1    2 1
     2    1   28 1
     3    1   29 1
     4    1   30 1
     5    2    3 1
     6    2    4 1
     7    2   23 1
     8    4    5 1
     9    4    6 1
    10    4    7 1
    11    7    8 1
    12    7   31 1
    13    7   32 1
    14    8    9 2
    15    8   10 am
    16   10   11 1
    17   10   33 1
    18   11   16 ar
    19   11   12 ar
    20   12   13 ar
    21   12   34 1
    22   13   14 ar
    23   13   35 1
    24   14   15 ar
    25   14   36 1
    26   15   16 ar
    27   15   37 1
    28   16   17 1
    29   17   22 ar
    30   17   18 ar
    31   18   19 ar
    32   18   38 1
    33   19   20 ar
    34   19   39 1
    35   20   21 ar
    36   20   40 1
    37   21   22 ar
    38   21   41 1
    39   22   42 1
    40   23   27 1
    41   23   24 2
    42   24   25 1
    43   24   43 1
    44   25   26 1
    45   25   44 1
    46   26   27 2
    47   27   45 1
##########                 Name:     ZINC000068920681
##########          Protonation:                 none
##########               SMILES:   CC1=CC=C(/C=C/C(=O)NCC(C)(C)[NH+]2CCOCC2)C=C1
##########            Long Name:   NO_LONG_NAME
##########          FlexRecCode: 1
##########               Number:                 2046
##########   Ligand Source File: /nfs/db/export/3D/DE/ADMO/DEADMO.xajv.db2.gz
##########                 Rank:                    1
##########               Setnum:                   44
##########             Matchnum:                    1
##########                Cloud:                    1
##########        Electrostatic:           -42.804573
##########                 Gist:             0.000000
##########        Van der Waals:           -32.151699
##########  Ligand Polar Desolv:            15.664231
########## Ligand Apolar Desolv:            -4.594744
##########      Internal Energy:             0.000000
##########      Receptor Energy:             0.000000
########## Receptor Desolvation:             0.000000
########## Receptor Hydrophobic:             0.000000
##########         Total Energy:           -63.886780
##########        Ligand Charge:             1.000000
##########            Arbitrary:    +999.9990
##########        Ligand Energy:             0.000000

@<TRIPOS>MOLECULE
 ZINC000068920681      none
   49    50     0     0     0



@<TRIPOS>ATOM
      1 C1        -14.3295    10.8084   -12.1074 C.3        1  LIG1  -0.1300
      2 C2        -14.8006    11.8627   -13.0758 C.ar       1  LIG1  -0.0600
      3 C3        -14.2470    13.1305   -13.0362 C.ar       1  LIG1  -0.1200
      4 C4        -14.6727    14.1005   -13.9188 C.ar       1  LIG1  -0.0800
      5 C5        -15.6667    13.8005   -14.8556 C.ar       1  LIG1  -0.1100
      6 C6        -16.1265    14.8302   -15.8018 C.2        1  LIG1   0.0200
      7 C7        -15.9144    16.1343   -15.5344 C.2        1  LIG1  -0.2500
      8 C8        -16.3718    17.1585   -16.4756 C.2        1  LIG1   0.5600
      9 O1        -15.7685    18.2113   -16.5696 O.2        1  LIG1  -0.5200
     10 N1        -17.4608    16.9355   -17.2376 N.am       1  LIG1  -0.7500
     11 C9        -17.9184    17.9603   -18.1792 C.3        1  LIG1   0.1000
     12 C10       -18.6000    17.2884   -19.3728 C.3        1  LIG1   0.0500
     13 C11       -19.0780    18.3587   -20.3562 C.3        1  LIG1  -0.1800
     14 C12       -17.6049    16.3606   -20.0725 C.3        1  LIG1  -0.1800
     15 N2        -19.7513    16.5063   -18.9028 N.4        1  LIG1  -0.3800
     16 H1        -19.4304    15.6238   -18.5334 H          1  LIG1   0.4200
     17 C13       -20.6693    16.2634   -20.0240 C.3        1  LIG1  -0.0500
     18 C14       -21.8678    15.4481   -19.5318 C.3        1  LIG1   0.0400
     19 O2        -22.5130    16.1537   -18.4680 O.3        1  LIG1  -0.3500
     20 C15       -21.6519    16.4352   -17.3610 C.3        1  LIG1   0.0400
     21 C16       -20.4531    17.2523   -17.8491 C.3        1  LIG1  -0.0600
     22 C17       -16.2212    12.5172   -14.8893 C.ar       1  LIG1  -0.0900
     23 C18       -15.7807    11.5564   -14.0037 C.ar       1  LIG1  -0.1300
     24 H2        -13.5612    11.2285   -11.4584 H          1  LIG1   0.0800
     25 H3        -15.1703    10.4690   -11.5025 H          1  LIG1   0.0700
     26 H4        -13.9163     9.9652   -12.6609 H          1  LIG1   0.0700
     27 H5        -13.4796    13.3607   -12.3118 H          1  LIG1   0.1300
     28 H6        -14.2399    15.0895   -13.8866 H          1  LIG1   0.1300
     29 H7        -16.6338    14.5408   -16.7104 H          1  LIG1   0.1400
     30 H8        -15.4071    16.4237   -14.6259 H          1  LIG1   0.1300
     31 H9        -17.9416    16.0964   -17.1626 H          1  LIG1   0.3900
     32 H10       -18.6275    18.6211   -17.6806 H          1  LIG1   0.1000
     33 H11       -17.0643    18.5407   -18.5279 H          1  LIG1   0.1200
     34 H12       -19.5636    17.8799   -21.2065 H          1  LIG1   0.1100
     35 H13       -19.7870    19.0196   -19.8575 H          1  LIG1   0.0900
     36 H14       -18.2238    18.9390   -20.7050 H          1  LIG1   0.0900
     37 H15       -18.0905    15.8819   -20.9230 H          1  LIG1   0.0800
     38 H16       -16.7506    16.9409   -20.4213 H          1  LIG1   0.0900
     39 H17       -17.2645    15.5981   -19.3719 H          1  LIG1   0.1100
     40 H18       -21.0169    17.2165   -20.4224 H          1  LIG1   0.1400
     41 H19       -20.1496    15.7099   -20.8061 H          1  LIG1   0.1500
     42 H20       -22.5711    15.3035   -20.3519 H          1  LIG1   0.1400
     43 H21       -21.5248    14.4788   -19.1702 H          1  LIG1   0.0800
     44 H22       -22.1992    17.0051   -16.6100 H          1  LIG1   0.1400
     45 H23       -21.3017    15.4996   -16.9252 H          1  LIG1   0.0800
     46 H24       -19.7731    17.4328   -17.0165 H          1  LIG1   0.1400
     47 H25       -20.8006    18.2051   -18.2483 H          1  LIG1   0.1500
     48 H26       -16.9892    12.2780   -15.6099 H          1  LIG1   0.1200
     49 H27       -16.2081    10.5648   -14.0284 H          1  LIG1   0.1300
@<TRIPOS>BOND
     1    1    2 1
     2    1   24 1
     3    1   25 1
     4    1   26 1
     5    2   23 ar
     6    2    3 ar
     7    3    4 ar
     8    3   27 1
     9    4    5 ar
    10    4   28 1
    11    5    6 1
    12    5   22 ar
    13    6    7 2
    14    6   29 1
    15    7    8 1
    16    7   30 1
    17    8    9 2
    18    8   10 am
    19   10   11 1
    20   10   31 1
    21   11   12 1
    22   11   32 1
    23   11   33 1
    24   12   13 1
    25   12   14 1
    26   12   15 1
    27   13   34 1
    28   13   35 1
    29   13   36 1
    30   14   37 1
    31   14   38 1
    32   14   39 1
    33   15   16 1
    34   15   21 1
    35   15   17 1
    36   17   18 1
    37   17   40 1
    38   17   41 1
    39   18   19 1
    40   18   42 1
    41   18   43 1
    42   19   20 1
    43   20   21 1
    44   20   44 1
    45   20   45 1
    46   21   46 1
    47   21   47 1
    48   22   23 ar
    49   22   48 1
    50   23   49 1
##########                 Name:     ZINC000466408491
##########          Protonation:                 none
##########               SMILES:   OC[C@@H](C[NH2+]CC1=CN2C=C(Cl)C=CC2=N1)CC1CCCC1
##########            Long Name:   NO_LONG_NAME
##########          FlexRecCode: 1
##########               Number:                 2143
##########   Ligand Source File: /nfs/db/export/3D/DG/ADRO/DGADRO.xafr.db2.gz
##########                 Rank:                    1
##########               Setnum:                  393
##########             Matchnum:                    1
##########                Cloud:                    1
##########        Electrostatic:           -42.468605
##########                 Gist:             0.000000
##########        Van der Waals:           -32.303654
##########  Ligand Polar Desolv:            12.999535
########## Ligand Apolar Desolv:            -5.298308
##########      Internal Energy:             0.000000
##########      Receptor Energy:             0.000000
########## Receptor Desolvation:             0.000000
########## Receptor Hydrophobic:             0.000000
##########         Total Energy:           -67.071037
##########        Ligand Charge:             1.000000
##########            Arbitrary:    +999.9990
##########        Ligand Energy:             0.000000

@<TRIPOS>MOLECULE
 ZINC000466408491      none
   47    49     0     0     0



@<TRIPOS>ATOM
      1 O1        -17.2722    14.9207   -19.7752 O.3        1  LIG1  -0.6000
      2 C1        -18.0708    15.9735   -20.3194 C.3        1  LIG1   0.0600
      3 C2        -18.7632    16.7281   -19.1827 C.3        1  LIG1  -0.1100
      4 H1        -19.3990    16.0408   -18.6247 H          1  LIG1   0.1100
      5 C3        -17.7077    17.3203   -18.2466 C.3        1  LIG1   0.0000
      6 N1        -17.2163    16.2749   -17.3390 N.4        1  LIG1  -0.5000
      7 H2        -17.9849    15.9143   -16.7939 H          1  LIG1   0.4300
      8 H3        -16.8061    15.5271   -17.8781 H          1  LIG1   0.4300
      9 C4        -16.2029    16.8436   -16.4403 C.3        1  LIG1   0.0900
     10 C5        -15.6987    15.7712   -15.5092 C.2        1  LIG1  -0.0200
     11 C6        -16.1040    14.4823   -15.4985 C.2        1  LIG1  -0.0400
     12 N2        -15.4050    13.8469   -14.5087 N.pl3      1  LIG1  -0.3500
     13 C7        -15.4078    12.5584   -14.0574 C.2        1  LIG1   0.0600
     14 C8        -14.6010    12.1842   -13.0411 C.2        1  LIG1  -0.0400
     15 Cl1       -14.6204    10.5409   -12.4819 Cl         1  LIG1  -0.0100
     16 C9        -13.7453    13.1198   -12.4346 C.2        1  LIG1  -0.0800
     17 C10       -13.7330    14.4064   -12.8756 C.2        1  LIG1  -0.0600
     18 C11       -14.5816    14.7813   -13.9365 C.2        1  LIG1   0.2400
     19 N3        -14.7730    15.9348   -14.5612 N.2        1  LIG1  -0.4700
     20 C12       -19.6183    17.8552   -19.7652 C.3        1  LIG1  -0.1000
     21 C13       -20.9402    17.2798   -20.2774 C.3        1  LIG1  -0.1000
     22 C14       -21.7785    16.7184   -19.1023 C.3        1  LIG1  -0.1200
     23 C15       -23.2224    16.7611   -19.6614 C.3        1  LIG1  -0.1300
     24 C16       -23.2729    18.0682   -20.4791 C.3        1  LIG1  -0.1300
     25 C17       -21.8219    18.3981   -20.8707 C.3        1  LIG1  -0.1200
     26 H4        -17.7737    14.2702   -19.2648 H          1  LIG1   0.4100
     27 H5        -17.4349    16.6607   -20.8774 H          1  LIG1   0.0700
     28 H6        -18.8227    15.5515   -20.9863 H          1  LIG1   0.0800
     29 H7        -16.8774    17.7099   -18.8355 H          1  LIG1   0.1300
     30 H8        -18.1507    18.1282   -17.6643 H          1  LIG1   0.1300
     31 H9        -15.3726    17.2333   -17.0291 H          1  LIG1   0.1400
     32 H10       -16.6459    17.6514   -15.8579 H          1  LIG1   0.1400
     33 H11       -16.8421    14.0370   -16.1492 H          1  LIG1   0.1900
     34 H12       -16.0615    11.8318   -14.5170 H          1  LIG1   0.1800
     35 H13       -13.1008    12.8186   -11.6220 H          1  LIG1   0.1600
     36 H14       -13.0797    15.1339   -12.4168 H          1  LIG1   0.1700
     37 H15       -19.8199    18.5955   -18.9911 H          1  LIG1   0.0800
     38 H16       -19.0841    18.3276   -20.5895 H          1  LIG1   0.0800
     39 H17       -20.7552    16.5048   -21.0212 H          1  LIG1   0.0800
     40 H18       -21.4836    15.6946   -18.8719 H          1  LIG1   0.0600
     41 H19       -21.6859    17.3554   -18.2227 H          1  LIG1   0.0700
     42 H20       -23.4079    15.9012   -20.3049 H          1  LIG1   0.0700
     43 H21       -23.9461    16.7923   -18.8470 H          1  LIG1   0.0700
     44 H22       -23.8781    17.9254   -21.3743 H          1  LIG1   0.0700
     45 H23       -23.6878    18.8728   -19.8718 H          1  LIG1   0.0700
     46 H24       -21.5325    19.3627   -20.4536 H          1  LIG1   0.0700
     47 H25       -21.7229    18.4154   -21.9561 H          1  LIG1   0.0700
@<TRIPOS>BOND
     1    1    2 1
     2    1   26 1
     3    2    3 1
     4    2   27 1
     5    2   28 1
     6    3    4 1
     7    3    5 1
     8    3   20 1
     9    5    6 1
    10    5   29 1
    11    5   30 1
    12    6    7 1
    13    6    8 1
    14    6    9 1
    15    9   10 1
    16    9   31 1
    17    9   32 1
    18   10   19 1
    19   10   11 2
    20   11   12 1
    21   11   33 1
    22   12   18 1
    23   12   13 1
    24   13   14 2
    25   13   34 1
    26   14   15 1
    27   14   16 1
    28   16   17 2
    29   16   35 1
    30   17   18 1
    31   17   36 1
    32   18   19 2
    33   20   21 1
    34   20   37 1
    35   20   38 1
    36   21   25 1
    37   21   22 1
    38   21   39 1
    39   22   23 1
    40   22   40 1
    41   22   41 1
    42   23   24 1
    43   23   42 1
    44   23   43 1
    45   24   25 1
    46   24   44 1
    47   24   45 1
    48   25   46 1
    49   25   47 1
##########                 Name:     ZINC000159533726
##########          Protonation:                 none
##########               SMILES:   C[C@H](C(=O)NC1=CC([N+](=O)[O-])=CC=C1Cl)[N@@H+](C)C[C@@H]1CCC[C@@H]1O
##########            Long Name:   NO_LONG_NAME
##########          FlexRecCode: 1
##########               Number:                 4757
##########   Ligand Source File: /nfs/db/export/3D/FF/BDMO/FFBDMO.xbi.db2.gz
##########                 Rank:                    1
##########               Setnum:                  390
##########             Matchnum:                    1
##########                Cloud:                    1
##########        Electrostatic:           -48.595921
##########                 Gist:             0.000000
##########        Van der Waals:           -34.298576
##########  Ligand Polar Desolv:            14.034811
########## Ligand Apolar Desolv:            -4.807582
##########      Internal Energy:             0.000000
##########      Receptor Energy:             0.000000
########## Receptor Desolvation:             0.000000
########## Receptor Hydrophobic:             0.000000
##########         Total Energy:           -73.667274
##########        Ligand Charge:             1.000000
##########            Arbitrary:    +999.9990
##########        Ligand Energy:             0.000000

@<TRIPOS>MOLECULE
 ZINC000159533726      none
   47    48     0     0     0



@<TRIPOS>ATOM
      1 C1        -16.9017    15.1004   -19.4163 C.3        1  LIG1  -0.1800
      2 C2        -16.7714    16.1877   -18.3480 C.3        1  LIG1   0.0100
      3 H1        -16.2203    17.0346   -18.7567 H          1  LIG1   0.1600
      4 C3        -16.0321    15.6353   -17.1566 C.2        1  LIG1   0.5100
      5 O1        -14.9891    16.1424   -16.8015 O.2        1  LIG1  -0.4900
      6 N1        -16.5298    14.5775   -16.4857 N.am       1  LIG1  -0.6400
      7 C4        -15.8430    14.0644   -15.3792 C.ar       1  LIG1   0.1400
      8 C5        -15.0718    14.9047   -14.5882 C.ar       1  LIG1  -0.0700
      9 C6        -14.3956    14.3955   -13.4963 C.ar       1  LIG1  -0.0200
     10 N2        -13.5735    15.2915   -12.6523 N.pl3      1  LIG1   0.0200
     11 O2        -13.4936    16.4769   -12.9206 O.2        1  LIG1  -0.1400
     12 O3        -12.9770    14.8434   -11.6896 O.2        1  LIG1  -0.1400
     13 C7        -14.4860    13.0502   -13.1907 C.ar       1  LIG1  -0.0500
     14 C8        -15.2532    12.2095   -13.9763 C.ar       1  LIG1  -0.0800
     15 C9        -15.9364    12.7132   -15.0666 C.ar       1  LIG1  -0.0200
     16 Cl1       -16.8995    11.6576   -16.0525 Cl         1  LIG1  -0.0200
     17 N3        -18.1094    16.6287   -17.9323 N.4        1  LIG1  -0.3800
     18 H2        -18.6196    15.8447   -17.5538 H          1  LIG1   0.4300
     19 C10       -17.9843    17.6729   -16.9066 C.3        1  LIG1  -0.0600
     20 C11       -18.8303    17.1671   -19.0937 C.3        1  LIG1   0.0000
     21 C12       -20.2240    17.6264   -18.6609 C.3        1  LIG1  -0.1100
     22 H3        -20.1415    18.4019   -17.8994 H          1  LIG1   0.1000
     23 C13       -21.0280    16.4299   -18.1118 C.3        1  LIG1  -0.1400
     24 C14       -22.4742    16.6861   -18.6037 C.3        1  LIG1  -0.1200
     25 C15       -22.2547    17.2687   -20.0220 C.3        1  LIG1  -0.1600
     26 C16       -21.0035    18.1610   -19.8751 C.3        1  LIG1   0.1100
     27 H4        -21.3007    19.1956   -19.7034 H          1  LIG1   0.0800
     28 O4        -20.1983    18.0724   -21.0524 O.3        1  LIG1  -0.5800
     29 H5        -17.4528    14.2534   -19.0075 H          1  LIG1   0.0900
     30 H6        -17.4363    15.5000   -20.2780 H          1  LIG1   0.1100
     31 H7        -15.9087    14.7730   -19.7246 H          1  LIG1   0.1100
     32 H8        -17.3637    14.1718   -16.7698 H          1  LIG1   0.4300
     33 H9        -15.0001    15.9558   -14.8261 H          1  LIG1   0.1900
     34 H10       -13.9559    12.6549   -12.3367 H          1  LIG1   0.1700
     35 H11       -15.3218    11.1589   -13.7349 H          1  LIG1   0.1700
     36 H12       -18.9773    18.0001   -16.5983 H          1  LIG1   0.1200
     37 H13       -17.4496    17.2733   -16.0448 H          1  LIG1   0.1300
     38 H14       -17.4333    18.5197   -17.3156 H          1  LIG1   0.1300
     39 H15       -18.2792    18.0140   -19.5027 H          1  LIG1   0.1400
     40 H16       -18.9231    16.3923   -19.8549 H          1  LIG1   0.1400
     41 H17       -20.6463    15.4942   -18.5203 H          1  LIG1   0.0800
     42 H18       -20.9927    16.4142   -17.0225 H          1  LIG1   0.0800
     43 H19       -23.0366    15.7537   -18.6518 H          1  LIG1   0.0800
     44 H20       -22.9778    17.4096   -17.9626 H          1  LIG1   0.0800
     45 H21       -22.0711    16.4684   -20.7388 H          1  LIG1   0.0800
     46 H22       -23.1146    17.8653   -20.3266 H          1  LIG1   0.0800
     47 H23       -19.9205    17.1726   -21.2722 H          1  LIG1   0.4000
@<TRIPOS>BOND
     1    1    2 1
     2    1   29 1
     3    1   30 1
     4    1   31 1
     5    2    3 1
     6    2    4 1
     7    2   17 1
     8    4    5 2
     9    4    6 am
    10    6    7 1
    11    6   32 1
    12    7   15 ar
    13    7    8 ar
    14    8    9 ar
    15    8   33 1
    16    9   10 1
    17    9   13 ar
    18   10   11 2
    19   10   12 2
    20   13   14 ar
    21   13   34 1
    22   14   15 ar
    23   14   35 1
    24   15   16 1
    25   17   18 1
    26   17   19 1
    27   17   20 1
    28   19   36 1
    29   19   37 1
    30   19   38 1
    31   20   21 1
    32   20   39 1
    33   20   40 1
    34   21   22 1
    35   21   26 1
    36   21   23 1
    37   23   24 1
    38   23   41 1
    39   23   42 1
    40   24   25 1
    41   24   43 1
    42   24   44 1
    43   25   26 1
    44   25   45 1
    45   25   46 1
    46   26   27 1
    47   26   28 1
    48   28   47 1
##########                 Name:     ZINC000151228439
##########          Protonation:                 none
##########               SMILES:   C[C@@H]([NH2+]C[C@](C)(O)c1ccccc1)c1cn(-c2ccccc2)nn1
##########            Long Name:   NO_LONG_NAME
##########          FlexRecCode: 1
##########               Number:                  513
##########   Ligand Source File: /nfs/db/export/3D/DF/ADRO/DFADRO.xayt.db2.gz
##########                 Rank:                    1
##########               Setnum:                  227
##########             Matchnum:                    1
##########                Cloud:                    1
##########        Electrostatic:           -49.034599
##########                 Gist:             0.000000
##########        Van der Waals:           -34.412132
##########  Ligand Polar Desolv:            14.481583
########## Ligand Apolar Desolv:            -4.506568
##########      Internal Energy:             0.000000
##########      Receptor Energy:             0.000000
########## Receptor Desolvation:             0.000000
########## Receptor Hydrophobic:             0.000000
##########         Total Energy:           -73.471718
##########        Ligand Charge:             1.000000
##########            Arbitrary:    +999.9990
##########        Ligand Energy:             0.000000

@<TRIPOS>MOLECULE
 ZINC000151228439      none
   47    49     0     0     0



@<TRIPOS>ATOM
      1 C1        -16.3730    16.1673   -19.4422 C.3        1  LIG1  -0.1800
      2 C2        -16.9595    16.9247   -18.2491 C.3        1  LIG1   0.1400
      3 H1        -16.9507    17.9945   -18.4579 H          1  LIG1   0.1500
      4 N1        -18.3410    16.4819   -18.0192 N.4        1  LIG1  -0.5000
      5 H2        -18.4008    15.4834   -18.1520 H          1  LIG1   0.4400
      6 H3        -18.6156    16.7127   -17.0760 H          1  LIG1   0.4300
      7 C3        -19.2360    17.1566   -18.9688 C.3        1  LIG1  -0.0400
      8 C4        -20.6750    16.6954   -18.7294 C.3        1  LIG1   0.1700
      9 C5        -21.0915    17.0454   -17.2994 C.3        1  LIG1  -0.1600
     10 O1        -20.7595    15.2812   -18.9174 O.3        1  LIG1  -0.5400
     11 C6        -21.5930    17.3873   -19.7037 C.ar       1  LIG1  -0.1400
     12 C7        -21.0775    18.2819   -20.6230 C.ar       1  LIG1  -0.1200
     13 C8        -21.9197    18.9168   -21.5167 C.ar       1  LIG1  -0.1100
     14 C9        -23.2771    18.6568   -21.4915 C.ar       1  LIG1  -0.1000
     15 C10       -23.7924    17.7617   -20.5728 C.ar       1  LIG1  -0.1100
     16 C11       -22.9497    17.1236   -19.6819 C.ar       1  LIG1  -0.0900
     17 C12       -16.1316    16.6459   -17.0210 C.2        1  LIG1  -0.0900
     18 C13       -15.9067    15.4377   -16.4534 C.2        1  LIG1   0.0000
     19 N2        -15.1091    15.6710   -15.3754 N.pl3      1  LIG1  -0.2200
     20 C14       -14.6215    14.7015   -14.4870 C.ar       1  LIG1   0.0900
     21 C15       -13.8175    15.0779   -13.4197 C.ar       1  LIG1  -0.1100
     22 C16       -13.3386    14.1209   -12.5464 C.ar       1  LIG1  -0.1000
     23 C17       -13.6593    12.7890   -12.7345 C.ar       1  LIG1  -0.0900
     24 C18       -14.4595    12.4110   -13.7969 C.ar       1  LIG1  -0.1000
     25 C19       -14.9464    13.3643   -14.6699 C.ar       1  LIG1  -0.0900
     26 N3        -14.8798    16.9361   -15.3134 N.2        1  LIG1  -0.0400
     27 N4        -15.4701    17.5432   -16.2815 N.2        1  LIG1  -0.2600
     28 H4        -16.3817    15.0976   -19.2333 H          1  LIG1   0.0900
     29 H5        -16.9715    16.3690   -20.3304 H          1  LIG1   0.1100
     30 H6        -15.3477    16.4958   -19.6128 H          1  LIG1   0.0900
     31 H7        -19.1715    18.2352   -18.8252 H          1  LIG1   0.1500
     32 H8        -18.9392    16.9072   -19.9876 H          1  LIG1   0.1400
     33 H9        -22.1166    16.7168   -17.1288 H          1  LIG1   0.0900
     34 H10       -20.4275    16.5447   -16.5948 H          1  LIG1   0.0900
     35 H11       -21.0270    18.1240   -17.1558 H          1  LIG1   0.0600
     36 H12       -20.1934    14.7710   -18.3221 H          1  LIG1   0.3900
     37 H13       -20.0170    18.4851   -20.6427 H          1  LIG1   0.1200
     38 H14       -21.5170    19.6162   -22.2344 H          1  LIG1   0.1300
     39 H15       -23.9351    19.1534   -22.1893 H          1  LIG1   0.1300
     40 H16       -24.8530    17.5588   -20.5527 H          1  LIG1   0.1300
     41 H17       -23.3524    16.4241   -18.9641 H          1  LIG1   0.1300
     42 H18       -16.2839    14.4826   -16.7879 H          1  LIG1   0.2100
     43 H19       -13.5663    16.1179   -13.2725 H          1  LIG1   0.1400
     44 H20       -12.7127    14.4130   -11.7161 H          1  LIG1   0.1400
     45 H21       -13.2837    12.0424   -12.0503 H          1  LIG1   0.1400
     46 H22       -14.7080    11.3700   -13.9415 H          1  LIG1   0.1500
     47 H23       -15.5716    13.0686   -15.4994 H          1  LIG1   0.1500
@<TRIPOS>BOND
     1    1    2 1
     2    1   28 1
     3    1   29 1
     4    1   30 1
     5    2    3 1
     6    2    4 1
     7    2   17 1
     8    4    5 1
     9    4    6 1
    10    4    7 1
    11    7    8 1
    12    7   31 1
    13    7   32 1
    14    8    9 1
    15    8   10 1
    16    8   11 1
    17    9   33 1
    18    9   34 1
    19    9   35 1
    20   10   36 1
    21   11   16 ar
    22   11   12 ar
    23   12   13 ar
    24   12   37 1
    25   13   14 ar
    26   13   38 1
    27   14   15 ar
    28   14   39 1
    29   15   16 ar
    30   15   40 1
    31   16   41 1
    32   17   27 1
    33   17   18 2
    34   18   19 1
    35   18   42 1
    36   19   20 1
    37   19   26 1
    38   20   25 ar
    39   20   21 ar
    40   21   22 ar
    41   21   43 1
    42   22   23 ar
    43   22   44 1
    44   23   24 ar
    45   23   45 1
    46   24   25 ar
    47   24   46 1
    48   25   47 1
    49   26   27 2
##########                 Name:     ZINC000595834230
##########          Protonation:                 none
##########               SMILES:   CCOC(=O)C1=C(C[N@H+]2CCC3(COC3)C2)OC(C2=CC=CC=C2)=N1
##########            Long Name:   NO_LONG_NAME
##########          FlexRecCode: 1
##########               Number:                 8653
##########   Ligand Source File: /nfs/db/export/3D/EF/ADMO/EFADMO.xabu.db2.gz
##########                 Rank:                    1
##########               Setnum:                   19
##########             Matchnum:                    1
##########                Cloud:                    1
##########        Electrostatic:           -40.131565
##########                 Gist:             0.000000
##########        Van der Waals:           -35.586979
##########  Ligand Polar Desolv:            14.174309
########## Ligand Apolar Desolv:            -3.809007
##########      Internal Energy:             0.000000
##########      Receptor Energy:             0.000000
########## Receptor Desolvation:             0.000000
########## Receptor Hydrophobic:             0.000000
##########         Total Energy:           -65.353241
##########        Ligand Charge:             1.000000
##########            Arbitrary:    +999.9990
##########        Ligand Energy:             0.000000

@<TRIPOS>MOLECULE
 ZINC000595834230      none
   48    51     0     0     0



@<TRIPOS>ATOM
      1 C1        -12.9232    20.7997   -17.7247 C.3        1  LIG1  -0.1600
      2 C2        -13.5197    20.6632   -16.3222 C.3        1  LIG1   0.0600
      3 O1        -13.7706    19.2617   -16.0375 O.3        1  LIG1  -0.3200
      4 C3        -14.9811    18.7757   -16.3771 C.2        1  LIG1   0.5500
      5 O2        -15.8041    19.5032   -16.8970 O.2        1  LIG1  -0.5100
      6 C4        -15.3064    17.3625   -16.1181 C.2        1  LIG1   0.0200
      7 C5        -16.1513    16.5805   -16.8479 C.2        1  LIG1  -0.0600
      8 C6        -16.9274    16.9991   -18.0701 C.3        1  LIG1   0.0900
      9 N1        -18.3091    16.5121   -17.9632 N.4        1  LIG1  -0.4000
     10 H1        -18.3212    15.5812   -17.5741 H          1  LIG1   0.4300
     11 C7        -19.1123    17.4319   -17.1159 C.3        1  LIG1  -0.0100
     12 C8        -20.5717    17.1476   -17.5601 C.3        1  LIG1  -0.1200
     13 C9        -20.4208    16.9004   -19.0682 C.3        1  LIG1  -0.1600
     14 C10       -21.4615    15.9706   -19.6931 C.3        1  LIG1   0.0500
     15 O3        -22.1682    17.1854   -20.0249 O.3        1  LIG1  -0.3600
     16 C11       -20.9758    17.9984   -19.9765 C.3        1  LIG1   0.0600
     17 C12       -18.9568    16.5169   -19.2963 C.3        1  LIG1   0.0000
     18 O4        -16.1623    15.3672   -16.2732 O.3        1  LIG1  -0.1700
     19 C13       -15.3403    15.3993   -15.2094 C.2        1  LIG1   0.3100
     20 C14       -15.0675    14.2648   -14.3010 C.ar       1  LIG1  -0.0600
     21 C15       -14.1956    14.4241   -13.2232 C.ar       1  LIG1  -0.0800
     22 C16       -13.9456    13.3618   -12.3791 C.ar       1  LIG1  -0.1200
     23 C17       -14.5568    12.1405   -12.5997 C.ar       1  LIG1  -0.0800
     24 C18       -15.4224    11.9759   -13.6664 C.ar       1  LIG1  -0.1200
     25 C19       -15.6853    13.0318   -14.5145 C.ar       1  LIG1  -0.0500
     26 N2        -14.8157    16.5943   -15.1110 N.2        1  LIG1  -0.4400
     27 H2        -12.7347    21.8519   -17.9384 H          1  LIG1   0.0700
     28 H3        -11.9865    20.2449   -17.7767 H          1  LIG1   0.0700
     29 H4        -13.6236    20.3998   -18.4578 H          1  LIG1   0.0900
     30 H5        -12.8192    21.0631   -15.5890 H          1  LIG1   0.0800
     31 H6        -14.4564    21.2180   -16.2702 H          1  LIG1   0.0800
     32 H7        -16.9301    18.0865   -18.1440 H          1  LIG1   0.1600
     33 H8        -16.4606    16.5755   -18.9594 H          1  LIG1   0.1700
     34 H9        -18.9793    17.1960   -16.0601 H          1  LIG1   0.1300
     35 H10       -18.8452    18.4696   -17.3154 H          1  LIG1   0.1400
     36 H11       -20.9626    16.2614   -17.0600 H          1  LIG1   0.1100
     37 H12       -21.2087    18.0118   -17.3717 H          1  LIG1   0.1300
     38 H13       -21.0979    15.4198   -20.5605 H          1  LIG1   0.1000
     39 H14       -21.9810    15.3401   -18.9715 H          1  LIG1   0.1100
     40 H15       -21.1145    18.9572   -19.4769 H          1  LIG1   0.1100
     41 H16       -20.4597    18.0836   -20.9328 H          1  LIG1   0.1000
     42 H17       -18.4748    17.2509   -19.9421 H          1  LIG1   0.1400
     43 H18       -18.8963    15.5260   -19.7464 H          1  LIG1   0.1400
     44 H19       -13.7172    15.3769   -13.0504 H          1  LIG1   0.1300
     45 H20       -13.2710    13.4839   -11.5446 H          1  LIG1   0.1400
     46 H21       -14.3573    11.3117   -11.9365 H          1  LIG1   0.1400
     47 H22       -15.8961    11.0198   -13.8334 H          1  LIG1   0.1400
     48 H23       -16.3614    12.9022   -15.3467 H          1  LIG1   0.1400
@<TRIPOS>BOND
     1    1    2 1
     2    1   27 1
     3    1   28 1
     4    1   29 1
     5    2    3 1
     6    2   30 1
     7    2   31 1
     8    3    4 1
     9    4    5 2
    10    4    6 1
    11    6   26 1
    12    6    7 2
    13    7    8 1
    14    7   18 1
    15    8    9 1
    16    8   32 1
    17    8   33 1
    18    9   10 1
    19    9   17 1
    20    9   11 1
    21   11   12 1
    22   11   34 1
    23   11   35 1
    24   12   13 1
    25   12   36 1
    26   12   37 1
    27   13   16 1
    28   13   14 1
    29   13   17 1
    30   14   15 1
    31   14   38 1
    32   14   39 1
    33   15   16 1
    34   16   40 1
    35   16   41 1
    36   17   42 1
    37   17   43 1
    38   18   19 1
    39   19   20 1
    40   19   26 2
    41   20   25 ar
    42   20   21 ar
    43   21   22 ar
    44   21   44 1
    45   22   23 ar
    46   22   45 1
    47   23   24 ar
    48   23   46 1
    49   24   25 ar
    50   24   47 1
    51   25   48 1
##########                 Name:     ZINC000305241084
##########          Protonation:                 none
##########               SMILES:   C[C@@](O)(C[NH2+]CC1=CC=CC(C2=CC=CC=N2)=C1)C1=CC=CO1
##########            Long Name:   NO_LONG_NAME
##########          FlexRecCode: 1
##########               Number:                12650
##########   Ligand Source File: /nfs/db/export/3D/DG/ADRO/DGADRO.xafk.db2.gz
##########                 Rank:                    1
##########               Setnum:                  498
##########             Matchnum:                    1
##########                Cloud:                    1
##########        Electrostatic:           -41.244045
##########                 Gist:             0.000000
##########        Van der Waals:           -34.918709
##########  Ligand Polar Desolv:            15.934769
########## Ligand Apolar Desolv:            -4.155720
##########      Internal Energy:             0.000000
##########      Receptor Energy:             0.000000
########## Receptor Desolvation:             0.000000
########## Receptor Hydrophobic:             0.000000
##########         Total Energy:           -64.383698
##########        Ligand Charge:             1.000000
##########            Arbitrary:    +999.9990
##########        Ligand Energy:             0.000000

@<TRIPOS>MOLECULE
 ZINC000305241084      none
   44    46     0     0     0



@<TRIPOS>ATOM
      1 C1        -19.3933    16.3698   -20.3377 C.3        1  LIG1  -0.1600
      2 C2        -20.3859    16.7279   -19.2298 C.3        1  LIG1   0.2100
      3 O1        -20.7459    15.5457   -18.5124 O.3        1  LIG1  -0.5300
      4 C3        -19.7399    17.7297   -18.2707 C.3        1  LIG1  -0.0400
      5 N1        -18.5368    17.1326   -17.6759 N.4        1  LIG1  -0.5100
      6 H1        -18.7910    16.2978   -17.1692 H          1  LIG1   0.4300
      7 H2        -17.8823    16.8963   -18.4066 H          1  LIG1   0.4300
      8 C4        -17.9165    18.0944   -16.7552 C.3        1  LIG1   0.0500
      9 C5        -16.6823    17.4817   -16.1450 C.ar       1  LIG1  -0.1700
     10 C6        -15.5170    18.2212   -16.0545 C.ar       1  LIG1  -0.0900
     11 C7        -14.3803    17.6652   -15.4957 C.ar       1  LIG1  -0.1100
     12 C8        -14.4033    16.3683   -15.0249 C.ar       1  LIG1  -0.0700
     13 C9        -15.5749    15.6183   -15.1133 C.ar       1  LIG1  -0.0300
     14 C10       -15.6059    14.2236   -14.6089 C.ar       1  LIG1   0.1500
     15 C11       -16.4518    13.2918   -15.2061 C.ar       1  LIG1  -0.1600
     16 C12       -16.4698    11.9940   -14.7246 C.ar       1  LIG1  -0.0700
     17 C13       -15.6402    11.6708   -13.6605 C.ar       1  LIG1  -0.1600
     18 C14       -14.8254    12.6462   -13.1153 C.ar       1  LIG1   0.1100
     19 N2        -14.8237    13.8726   -13.5963 N.ar       1  LIG1  -0.4800
     20 C15       -16.7185    16.1854   -15.6721 C.ar       1  LIG1  -0.0600
     21 C16       -21.6201    17.3407   -19.8400 C.2        1  LIG1  -0.0900
     22 C17       -22.7148    16.6702   -20.2419 C.2        1  LIG1  -0.1500
     23 C18       -23.6204    17.6306   -20.7482 C.2        1  LIG1  -0.2200
     24 C19       -23.0250    18.8304   -20.6254 C.2        1  LIG1  -0.0100
     25 O2        -21.8160    18.6494   -20.0694 O.3        1  LIG1  -0.1800
     26 H3        -19.1187    17.2716   -20.8850 H          1  LIG1   0.1000
     27 H4        -18.5006    15.9266   -19.8964 H          1  LIG1   0.0900
     28 H5        -19.8534    15.6560   -21.0210 H          1  LIG1   0.0700
     29 H6        -19.9988    15.0977   -18.0922 H          1  LIG1   0.4000
     30 H7        -19.4653    18.6316   -18.8179 H          1  LIG1   0.1500
     31 H8        -20.4471    17.9849   -17.4814 H          1  LIG1   0.1400
     32 H9        -17.6419    18.9962   -17.3026 H          1  LIG1   0.1400
     33 H10       -18.6236    18.3497   -15.9658 H          1  LIG1   0.1400
     34 H11       -15.4947    19.2368   -16.4216 H          1  LIG1   0.1300
     35 H12       -13.4730    18.2471   -15.4280 H          1  LIG1   0.1400
     36 H13       -13.5154    15.9351   -14.5890 H          1  LIG1   0.1400
     37 H14       -17.0849    13.5779   -16.0330 H          1  LIG1   0.1400
     38 H15       -17.1155    11.2499   -15.1671 H          1  LIG1   0.1400
     39 H16       -15.6311    10.6673   -13.2615 H          1  LIG1   0.1400
     40 H17       -14.1784    12.3979   -12.2870 H          1  LIG1   0.1600
     41 H18       -17.6289    15.6088   -15.7432 H          1  LIG1   0.1400
     42 H19       -22.8715    15.6030   -20.1886 H          1  LIG1   0.1600
     43 H20       -24.6018    17.4378   -21.1557 H          1  LIG1   0.1600
     44 H21       -23.4489    19.7791   -20.9203 H          1  LIG1   0.2100
@<TRIPOS>BOND
     1    1    2 1
     2    1   26 1
     3    1   27 1
     4    1   28 1
     5    2    3 1
     6    2    4 1
     7    2   21 1
     8    3   29 1
     9    4    5 1
    10    4   30 1
    11    4   31 1
    12    5    6 1
    13    5    7 1
    14    5    8 1
    15    8    9 1
    16    8   32 1
    17    8   33 1
    18    9   20 ar
    19    9   10 ar
    20   10   11 ar
    21   10   34 1
    22   11   12 ar
    23   11   35 1
    24   12   13 ar
    25   12   36 1
    26   13   14 1
    27   13   20 ar
    28   14   19 ar
    29   14   15 ar
    30   15   16 ar
    31   15   37 1
    32   16   17 ar
    33   16   38 1
    34   17   18 ar
    35   17   39 1
    36   18   19 ar
    37   18   40 1
    38   20   41 1
    39   21   25 1
    40   21   22 2
    41   22   23 1
    42   22   42 1
    43   23   24 2
    44   23   43 1
    45   24   25 1
    46   24   44 1
##########                 Name:     ZINC000657699696
##########          Protonation:                 none
##########               SMILES:   CC1=NN(C2=CC=CC=C2Cl)C=C1C[NH2+]CC(O)(C1CC1)C1CC1
##########            Long Name:   NO_LONG_NAME
##########          FlexRecCode: 1
##########               Number:                 9744
##########   Ligand Source File: /nfs/db/export/3D/EG/ADRO/EGADRO.xaxx.db2.gz
##########                 Rank:                    1
##########               Setnum:                  562
##########             Matchnum:                    1
##########                Cloud:                    1
##########        Electrostatic:           -40.419647
##########                 Gist:             0.000000
##########        Van der Waals:           -35.498589
##########  Ligand Polar Desolv:            16.636705
########## Ligand Apolar Desolv:            -6.449544
##########      Internal Energy:             0.000000
##########      Receptor Energy:             0.000000
########## Receptor Desolvation:             0.000000
########## Receptor Hydrophobic:             0.000000
##########         Total Energy:           -65.731071
##########        Ligand Charge:             1.000000
##########            Arbitrary:    +999.9990
##########        Ligand Energy:             0.000000

@<TRIPOS>MOLECULE
 ZINC000657699696      none
   49    52     0     0     0



@<TRIPOS>ATOM
      1 C1        -15.3996    18.2864   -16.8443 C.3        1  LIG1  -0.0900
      2 C2        -15.5600    16.8199   -16.5368 C.2        1  LIG1   0.0900
      3 N1        -15.0969    16.2026   -15.4797 N.2        1  LIG1  -0.2400
      4 N2        -15.4572    14.8518   -15.5684 N.pl3      1  LIG1  -0.3000
      5 C3        -15.1518    13.8532   -14.6328 C.ar       1  LIG1   0.1400
      6 C4        -16.0046    12.7708   -14.4675 C.ar       1  LIG1  -0.1200
      7 C5        -15.7010    11.7880   -13.5451 C.ar       1  LIG1  -0.0900
      8 C6        -14.5486    11.8819   -12.7862 C.ar       1  LIG1  -0.1000
      9 C7        -13.6965    12.9584   -12.9481 C.ar       1  LIG1  -0.0900
     10 C8        -13.9915    13.9420   -13.8730 C.ar       1  LIG1  -0.0400
     11 Cl1       -12.9213    15.2937   -14.0758 Cl         1  LIG1  -0.0200
     12 C9        -16.1523    14.6817   -16.7156 C.2        1  LIG1   0.1100
     13 C10       -16.2348    15.8850   -17.3294 C.2        1  LIG1  -0.3100
     14 C11       -16.9234    16.1663   -18.6400 C.3        1  LIG1   0.0900
     15 N3        -18.3237    16.5328   -18.3887 N.4        1  LIG1  -0.5200
     16 H1        -18.7915    15.7718   -17.9195 H          1  LIG1   0.4200
     17 H2        -18.3566    17.3570   -17.8078 H          1  LIG1   0.4300
     18 C12       -18.9949    16.8070   -19.6663 C.3        1  LIG1  -0.0400
     19 C13       -20.4533    17.1886   -19.4045 C.3        1  LIG1   0.1800
     20 O1        -20.5224    18.5584   -19.0032 O.3        1  LIG1  -0.5300
     21 C14       -21.2697    16.9899   -20.6832 C.3        1  LIG1  -0.2000
     22 C15       -22.5882    17.7565   -20.8057 C.3        1  LIG1  -0.1400
     23 C16       -21.3786    18.1762   -21.6433 C.3        1  LIG1  -0.2200
     24 C17       -21.0209    16.3023   -18.2941 C.3        1  LIG1  -0.1500
     25 C18       -20.7054    16.6917   -16.8486 C.3        1  LIG1  -0.1800
     26 C19       -22.1155    16.8970   -17.4057 C.3        1  LIG1  -0.1600
     27 H3        -14.8283    18.7641   -16.0483 H          1  LIG1   0.1000
     28 H4        -14.8719    18.4037   -17.7908 H          1  LIG1   0.0900
     29 H5        -16.3824    18.7522   -16.9161 H          1  LIG1   0.0700
     30 H6        -16.9053    12.6971   -15.0591 H          1  LIG1   0.1400
     31 H7        -16.3646    10.9457   -13.4164 H          1  LIG1   0.1500
     32 H8        -14.3138    11.1122   -12.0660 H          1  LIG1   0.1500
     33 H9        -12.7973    13.0287   -12.3539 H          1  LIG1   0.1500
     34 H10       -16.5703    13.7532   -17.0754 H          1  LIG1   0.1900
     35 H11       -16.4181    16.9883   -19.1469 H          1  LIG1   0.1400
     36 H12       -16.8879    15.2757   -19.2675 H          1  LIG1   0.1400
     37 H13       -18.4894    17.6290   -20.1731 H          1  LIG1   0.1500
     38 H14       -18.9595    15.9164   -20.2938 H          1  LIG1   0.1400
     39 H15       -20.0264    18.7576   -18.1974 H          1  LIG1   0.3700
     40 H16       -21.2249    15.9920   -21.1193 H          1  LIG1   0.1400
     41 H17       -23.4112    17.2628   -21.3223 H          1  LIG1   0.1100
     42 H18       -22.8738    18.4023   -19.9755 H          1  LIG1   0.1200
     43 H19       -20.8686    19.0982   -21.3641 H          1  LIG1   0.0800
     44 H20       -21.4058    17.9587   -22.7110 H          1  LIG1   0.1200
     45 H21       -21.0841    15.2394   -18.5270 H          1  LIG1   0.1300
     46 H22       -20.5606    15.8849   -16.1302 H          1  LIG1   0.1100
     47 H23       -20.0933    17.5794   -16.6887 H          1  LIG1   0.1000
     48 H24       -22.4311    17.9197   -17.6124 H          1  LIG1   0.1000
     49 H25       -22.8983    16.2252   -17.0539 H          1  LIG1   0.1100
@<TRIPOS>BOND
     1    1    2 1
     2    1   27 1
     3    1   28 1
     4    1   29 1
     5    2   13 1
     6    2    3 2
     7    3    4 1
     8    4    5 1
     9    4   12 1
    10    5   10 ar
    11    5    6 ar
    12    6    7 ar
    13    6   30 1
    14    7    8 ar
    15    7   31 1
    16    8    9 ar
    17    8   32 1
    18    9   10 ar
    19    9   33 1
    20   10   11 1
    21   12   13 2
    22   12   34 1
    23   13   14 1
    24   14   15 1
    25   14   35 1
    26   14   36 1
    27   15   16 1
    28   15   17 1
    29   15   18 1
    30   18   19 1
    31   18   37 1
    32   18   38 1
    33   19   20 1
    34   19   21 1
    35   19   24 1
    36   20   39 1
    37   21   23 1
    38   21   22 1
    39   21   40 1
    40   22   23 1
    41   22   41 1
    42   22   42 1
    43   23   43 1
    44   23   44 1
    45   24   26 1
    46   24   25 1
    47   24   45 1
    48   25   26 1
    49   25   46 1
    50   25   47 1
    51   26   48 1
    52   26   49 1
##########                 Name:     ZINC000293543779
##########          Protonation:                 none
##########               SMILES:   C[C@H]1C[N@H+](C2CC2)C[C@H]1NC(=O)C1=CN=C2C(F)=CC=C(F)C2=C1
##########            Long Name:   NO_LONG_NAME
##########          FlexRecCode: 1
##########               Number:                13673
##########   Ligand Source File: /nfs/db/export/3D/EF/ADMO/EFADMO.xaci.db2.gz
##########                 Rank:                    1
##########               Setnum:                    3
##########             Matchnum:                    1
##########                Cloud:                    1
##########        Electrostatic:           -41.161274
##########                 Gist:             0.000000
##########        Van der Waals:           -34.873459
##########  Ligand Polar Desolv:            14.869927
########## Ligand Apolar Desolv:            -5.134552
##########      Internal Energy:             0.000000
##########      Receptor Energy:             0.000000
########## Receptor Desolvation:             0.000000
########## Receptor Hydrophobic:             0.000000
##########         Total Energy:           -66.299355
##########        Ligand Charge:             1.000000
##########            Arbitrary:    +999.9990
##########        Ligand Energy:             0.000000

@<TRIPOS>MOLECULE
 ZINC000293543779      none
   44    47     0     0     0



@<TRIPOS>ATOM
      1 C1        -16.4450    16.2320   -19.3560 C.3        1  LIG1  -0.1700
      2 C2        -17.3578    17.4454   -19.1666 C.3        1  LIG1  -0.1200
      3 H1        -16.9147    18.3273   -19.6292 H          1  LIG1   0.1300
      4 C3        -18.7517    17.1670   -19.7688 C.3        1  LIG1   0.0000
      5 N1        -19.5662    16.6887   -18.6221 N.4        1  LIG1  -0.3700
      6 H2        -19.3655    15.7194   -18.4266 H          1  LIG1   0.4200
      7 C4        -20.9975    16.8717   -18.8967 C.3        1  LIG1  -0.0800
      8 C5        -21.7452    15.7093   -19.5530 C.3        1  LIG1  -0.1500
      9 C6        -21.9860    16.0386   -18.0784 C.3        1  LIG1  -0.1500
     10 C7        -19.1383    17.5469   -17.4874 C.3        1  LIG1  -0.0100
     11 C8        -17.6099    17.6969   -17.6657 C.3        1  LIG1   0.1300
     12 H3        -17.2934    18.7030   -17.3899 H          1  LIG1   0.1400
     13 N2        -16.9030    16.7020   -16.8552 N.am       1  LIG1  -0.7400
     14 C9        -16.0084    17.0998   -15.9290 C.2        1  LIG1   0.5700
     15 O1        -15.7881    18.2842   -15.7661 O.2        1  LIG1  -0.5100
     16 C10       -15.2955    16.0967   -15.1120 C.ar       1  LIG1  -0.2100
     17 C11       -14.0250    16.3856   -14.5846 C.ar       1  LIG1   0.1700
     18 N3        -13.3718    15.5156   -13.8581 N.ar       1  LIG1  -0.4500
     19 C12       -13.8789    14.3089   -13.5807 C.ar       1  LIG1   0.1400
     20 C13       -13.1604    13.3878   -12.7970 C.ar       1  LIG1   0.1200
     21 F1        -11.9423    13.7154   -12.3131 F          1  LIG1  -0.1100
     22 C14       -13.6969    12.1637   -12.5265 C.ar       1  LIG1  -0.0900
     23 C15       -14.9505    11.8040   -13.0138 C.ar       1  LIG1  -0.1200
     24 C16       -15.6783    12.6689   -13.7773 C.ar       1  LIG1   0.1200
     25 F2        -16.8936    12.3068   -14.2431 F          1  LIG1  -0.1200
     26 C17       -15.1557    13.9414   -14.0763 C.ar       1  LIG1  -0.1200
     27 C18       -15.8783    14.8604   -14.8536 C.ar       1  LIG1   0.0400
     28 H4        -16.9001    15.3585   -18.8891 H          1  LIG1   0.0600
     29 H5        -16.3067    16.0442   -20.4208 H          1  LIG1   0.0900
     30 H6        -15.4780    16.4289   -18.8933 H          1  LIG1   0.0900
     31 H7        -19.1769    18.0817   -20.1818 H          1  LIG1   0.1400
     32 H8        -18.6870    16.3961   -20.5368 H          1  LIG1   0.1400
     33 H9        -21.2980    17.8829   -19.1715 H          1  LIG1   0.1800
     34 H10       -22.5378    15.9555   -20.2597 H          1  LIG1   0.1300
     35 H11       -21.1749    14.8087   -19.7808 H          1  LIG1   0.1200
     36 H12       -21.5744    15.3550   -17.3362 H          1  LIG1   0.1200
     37 H13       -22.9371    16.5017   -17.8150 H          1  LIG1   0.1300
     38 H14       -19.6240    18.5211   -17.5434 H          1  LIG1   0.1500
     39 H15       -19.3647    17.0623   -16.5377 H          1  LIG1   0.1300
     40 H16       -17.0789    15.7570   -16.9853 H          1  LIG1   0.4100
     41 H17       -13.5775    17.3481   -14.7841 H          1  LIG1   0.1600
     42 H18       -13.1397    11.4611   -11.9244 H          1  LIG1   0.1600
     43 H19       -15.3516    10.8278   -12.7848 H          1  LIG1   0.1600
     44 H20       -16.8552    14.6136   -15.2425 H          1  LIG1   0.1700
@<TRIPOS>BOND
     1    1    2 1
     2    1   28 1
     3    1   29 1
     4    1   30 1
     5    2    3 1
     6    2   11 1
     7    2    4 1
     8    4    5 1
     9    4   31 1
    10    4   32 1
    11    5    6 1
    12    5    7 1
    13    5   10 1
    14    7    9 1
    15    7    8 1
    16    7   33 1
    17    8    9 1
    18    8   34 1
    19    8   35 1
    20    9   36 1
    21    9   37 1
    22   10   11 1
    23   10   38 1
    24   10   39 1
    25   11   12 1
    26   11   13 1
    27   13   14 am
    28   13   40 1
    29   14   15 2
    30   14   16 1
    31   16   27 ar
    32   16   17 ar
    33   17   18 ar
    34   17   41 1
    35   18   19 ar
    36   19   26 ar
    37   19   20 ar
    38   20   21 1
    39   20   22 ar
    40   22   23 ar
    41   22   42 1
    42   23   24 ar
    43   23   43 1
    44   24   25 1
    45   24   26 ar
    46   26   27 ar
    47   27   44 1
##########                 Name:     ZINC000369205980
##########          Protonation:                 none
##########               SMILES:   N#CC1(C2=CC=CC=N2)CC[NH+]([C@@H]2CC3=CC=CC=C3[C@@H]2O)CC1
##########            Long Name:   NO_LONG_NAME
##########          FlexRecCode: 1
##########               Number:                 6463
##########   Ligand Source File: /nfs/db/export/3D/DF/EDRO/DFEDRO.xbz.db2.gz
##########                 Rank:                    1
##########               Setnum:                    9
##########             Matchnum:                    1
##########                Cloud:                    1
##########        Electrostatic:           -43.617699
##########                 Gist:             0.000000
##########        Van der Waals:           -31.326565
##########  Ligand Polar Desolv:            15.413630
########## Ligand Apolar Desolv:            -5.272429
##########      Internal Energy:             0.000000
##########      Receptor Energy:             0.000000
########## Receptor Desolvation:             0.000000
########## Receptor Hydrophobic:             0.000000
##########         Total Energy:           -64.803062
##########        Ligand Charge:             1.000000
##########            Arbitrary:    +999.9990
##########        Ligand Energy:             0.000000

@<TRIPOS>MOLECULE
 ZINC000369205980      none
   46    49     0     0     0



@<TRIPOS>ATOM
      1 N1        -14.9630    18.4716   -15.2617 N.1        1  LIG1  -0.3700
      2 C1        -15.4043    17.4469   -15.4747 C.1        1  LIG1   0.1800
      3 C2        -15.9763    16.1189   -15.7508 C.3        1  LIG1   0.1000
      4 C3        -15.1656    15.0640   -15.0430 C.ar       1  LIG1   0.1100
      5 C4        -15.5227    13.7344   -15.1615 C.ar       1  LIG1  -0.1600
      6 C5        -14.7699    12.7716   -14.5064 C.ar       1  LIG1  -0.0600
      7 C6        -13.6813    13.1844   -13.7537 C.ar       1  LIG1  -0.1500
      8 C7        -13.3848    14.5327   -13.6817 C.ar       1  LIG1   0.1100
      9 N2        -14.1202    15.4201   -14.3220 N.ar       1  LIG1  -0.4700
     10 C8        -17.4247    16.0721   -15.2556 C.3        1  LIG1  -0.1300
     11 C9        -18.2576    17.0921   -16.0348 C.3        1  LIG1  -0.0100
     12 N3        -18.2179    16.7705   -17.4664 N.4        1  LIG1  -0.3700
     13 H1        -18.5492    15.8279   -17.6076 H          1  LIG1   0.4300
     14 C10       -19.0796    17.7061   -18.2011 C.3        1  LIG1   0.0300
     15 H2        -18.7418    18.7329   -18.0611 H          1  LIG1   0.1600
     16 C11       -20.5530    17.5496   -17.7693 C.3        1  LIG1  -0.0900
     17 C12       -21.3617    17.7854   -19.0269 C.ar       1  LIG1  -0.0900
     18 C13       -22.7048    18.0806   -19.1879 C.ar       1  LIG1  -0.1000
     19 C14       -23.2312    18.2559   -20.4531 C.ar       1  LIG1  -0.0900
     20 C15       -22.4153    18.1365   -21.5623 C.ar       1  LIG1  -0.1100
     21 C16       -21.0749    17.8419   -21.4037 C.ar       1  LIG1  -0.0800
     22 C17       -20.5455    17.6658   -20.1366 C.ar       1  LIG1  -0.1500
     23 C18       -19.1286    17.3447   -19.7008 C.3        1  LIG1   0.1400
     24 H3        -18.4145    17.9476   -20.2618 H          1  LIG1   0.1000
     25 O1        -18.8559    15.9541   -19.8863 O.3        1  LIG1  -0.5700
     26 C19       -16.8416    16.8835   -17.9642 C.3        1  LIG1  -0.0100
     27 C20       -15.9542    15.8553   -17.2592 C.3        1  LIG1  -0.1200
     28 H4        -16.3777    13.4488   -15.7562 H          1  LIG1   0.1300
     29 H5        -15.0255    11.7249   -14.5807 H          1  LIG1   0.1400
     30 H6        -13.0730    12.4620   -13.2301 H          1  LIG1   0.1500
     31 H7        -12.5386    14.8624   -13.0972 H          1  LIG1   0.1700
     32 H8        -17.8313    15.0732   -15.4138 H          1  LIG1   0.1200
     33 H9        -17.4540    16.3137   -14.1932 H          1  LIG1   0.1300
     34 H10       -19.2894    17.0616   -15.6846 H          1  LIG1   0.1400
     35 H11       -17.8503    18.0906   -15.8757 H          1  LIG1   0.1300
     36 H12       -20.7307    16.5439   -17.3885 H          1  LIG1   0.1000
     37 H13       -20.8063    18.2917   -17.0122 H          1  LIG1   0.1100
     38 H14       -23.3430    18.1739   -18.3217 H          1  LIG1   0.1300
     39 H15       -24.2793    18.4859   -20.5753 H          1  LIG1   0.1400
     40 H16       -22.8253    18.2728   -22.5521 H          1  LIG1   0.1400
     41 H17       -20.4381    17.7483   -22.2709 H          1  LIG1   0.1300
     42 H18       -19.4813    15.3676   -19.4391 H          1  LIG1   0.4100
     43 H19       -16.8280    16.6988   -19.0383 H          1  LIG1   0.1500
     44 H20       -16.4645    17.8864   -17.7640 H          1  LIG1   0.1200
     45 H21       -14.9324    15.9421   -17.6289 H          1  LIG1   0.1200
     46 H22       -16.3303    14.8520   -17.4589 H          1  LIG1   0.1300
@<TRIPOS>BOND
     1    1    2 3
     2    2    3 1
     3    3   27 1
     4    3    4 1
     5    3   10 1
     6    4    9 ar
     7    4    5 ar
     8    5    6 ar
     9    5   28 1
    10    6    7 ar
    11    6   29 1
    12    7    8 ar
    13    7   30 1
    14    8    9 ar
    15    8   31 1
    16   10   11 1
    17   10   32 1
    18   10   33 1
    19   11   12 1
    20   11   34 1
    21   11   35 1
    22   12   13 1
    23   12   14 1
    24   12   26 1
    25   14   15 1
    26   14   23 1
    27   14   16 1
    28   16   17 1
    29   16   36 1
    30   16   37 1
    31   17   22 ar
    32   17   18 ar
    33   18   19 ar
    34   18   38 1
    35   19   20 ar
    36   19   39 1
    37   20   21 ar
    38   20   40 1
    39   21   22 ar
    40   21   41 1
    41   22   23 1
    42   23   24 1
    43   23   25 1
    44   25   42 1
    45   26   27 1
    46   26   43 1
    47   26   44 1
    48   27   45 1
    49   27   46 1
##########                 Name:     ZINC000535316507
##########          Protonation:                 none
##########               SMILES:   CN1C=CN=C1[C@@H]1CC[N@H+](CC2=CN3C=CC=CC3=C2C#N)C1
##########            Long Name:   NO_LONG_NAME
##########          FlexRecCode: 1
##########               Number:                 1873
##########   Ligand Source File: /nfs/db/export/3D/DF/EDRO/DFEDRO.xas.db2.gz
##########                 Rank:                    1
##########               Setnum:                   42
##########             Matchnum:                    1
##########                Cloud:                    1
##########        Electrostatic:           -45.795822
##########                 Gist:             0.000000
##########        Van der Waals:           -33.101536
##########  Ligand Polar Desolv:            18.804420
########## Ligand Apolar Desolv:            -7.173431
##########      Internal Energy:             0.000000
##########      Receptor Energy:             0.000000
########## Receptor Desolvation:             0.000000
########## Receptor Hydrophobic:             0.000000
##########         Total Energy:           -67.266365
##########        Ligand Charge:             1.000000
##########            Arbitrary:    +999.9990
##########        Ligand Energy:             0.000000

@<TRIPOS>MOLECULE
 ZINC000535316507      none
   43    46     0     0     0



@<TRIPOS>ATOM
      1 C1        -23.3463    16.2205   -20.0982 C.3        1  LIG1   0.0600
      2 N1        -22.4732    17.3579   -20.3991 N.pl3      1  LIG1  -0.4500
      3 C2        -22.8008    18.4585   -21.1440 C.2        1  LIG1  -0.0300
      4 C3        -21.7124    19.2514   -21.1670 C.2        1  LIG1  -0.0200
      5 N2        -20.7467    18.6511   -20.4556 N.2        1  LIG1  -0.4800
      6 C4        -21.1969    17.5188   -19.9883 C.2        1  LIG1   0.1800
      7 C5        -20.4148    16.5432   -19.1350 C.3        1  LIG1  -0.0100
      8 H1        -20.8181    15.4947   -19.3714 H          1  LIG1   0.1200
      9 C6        -20.5283    16.7885   -17.6210 C.3        1  LIG1  -0.1300
     10 C7        -19.1520    17.2401   -17.1737 C.3        1  LIG1  -0.0100
     11 N3        -18.2418    16.4981   -18.1103 N.4        1  LIG1  -0.3900
     12 H2        -18.2615    15.4980   -17.8165 H          1  LIG1   0.4300
     13 C8        -16.8280    16.9804   -18.1033 C.3        1  LIG1   0.0700
     14 C9        -16.1059    16.4022   -16.9137 C.2        1  LIG1  -0.1400
     15 C10       -16.1535    15.1212   -16.5027 C.2        1  LIG1  -0.0100
     16 N4        -15.3713    14.9668   -15.3901 N.pl3      1  LIG1  -0.3300
     17 C11       -15.1016    13.8695   -14.6191 C.2        1  LIG1   0.0500
     18 C12       -14.2835    13.9621   -13.5498 C.2        1  LIG1  -0.1200
     19 C13       -13.6943    15.1900   -13.2102 C.2        1  LIG1  -0.0800
     20 C14       -13.9541    16.2917   -13.9697 C.2        1  LIG1  -0.1100
     21 C15       -14.8070    16.1768   -15.0779 C.2        1  LIG1   0.1300
     22 C16       -15.2509    17.1082   -16.0321 C.2        1  LIG1  -0.1300
     23 C17       -14.9080    18.4969   -16.0991 C.1        1  LIG1   0.2600
     24 N5        -14.6359    19.5987   -16.1522 N.1        1  LIG1  -0.4000
     25 C18       -18.9154    16.5662   -19.4575 C.3        1  LIG1   0.0000
     26 H3        -24.3181    16.3743   -20.5675 H          1  LIG1   0.0900
     27 H4        -22.8971    15.3056   -20.4845 H          1  LIG1   0.1000
     28 H5        -23.4733    16.1354   -19.0190 H          1  LIG1   0.0900
     29 H6        -23.7495    18.6535   -21.6218 H          1  LIG1   0.1800
     30 H7        -21.6314    20.2035   -21.6702 H          1  LIG1   0.1800
     31 H8        -21.2865    17.5659   -17.4120 H          1  LIG1   0.1100
     32 H9        -20.8276    15.8595   -17.1012 H          1  LIG1   0.1100
     33 H10       -19.0226    18.2947   -17.3182 H          1  LIG1   0.1300
     34 H11       -18.9493    16.9312   -16.1672 H          1  LIG1   0.1300
     35 H12       -16.3311    16.6624   -19.0199 H          1  LIG1   0.1400
     36 H13       -16.8156    18.0686   -18.0421 H          1  LIG1   0.1500
     37 H14       -16.7224    14.3356   -16.9777 H          1  LIG1   0.1900
     38 H15       -15.5486    12.9185   -14.8687 H          1  LIG1   0.1800
     39 H16       -14.0813    13.0861   -12.9513 H          1  LIG1   0.1600
     40 H17       -13.0402    15.2614   -12.3538 H          1  LIG1   0.1500
     41 H18       -13.5083    17.2434   -13.7208 H          1  LIG1   0.1500
     42 H19       -18.6266    15.7026   -20.0511 H          1  LIG1   0.1400
     43 H20       -18.6357    17.4904   -19.9565 H          1  LIG1   0.1500
@<TRIPOS>BOND
     1    1    2 1
     2    1   26 1
     3    1   27 1
     4    1   28 1
     5    2    6 1
     6    2    3 1
     7    3    4 2
     8    3   29 1
     9    4    5 1
    10    4   30 1
    11    5    6 2
    12    6    7 1
    13    7    8 1
    14    7   25 1
    15    7    9 1
    16    9   10 1
    17    9   31 1
    18    9   32 1
    19   10   11 1
    20   10   33 1
    21   10   34 1
    22   11   12 1
    23   11   13 1
    24   11   25 1
    25   13   14 1
    26   13   35 1
    27   13   36 1
    28   14   22 1
    29   14   15 2
    30   15   16 1
    31   15   37 1
    32   16   21 1
    33   16   17 1
    34   17   18 2
    35   17   38 1
    36   18   19 1
    37   18   39 1
    38   19   20 2
    39   19   40 1
    40   20   21 1
    41   20   41 1
    42   21   22 2
    43   22   23 1
    44   23   24 3
    45   25   42 1
    46   25   43 1
##########                 Name:     ZINC000268141382
##########          Protonation:                 none
##########               SMILES:   C[C@H]1C[N@H+](C2CC2)C[C@H]1NC(=O)C1=CC2=CC([N+](=O)[O-])=CC=C2S1
##########            Long Name:   NO_LONG_NAME
##########          FlexRecCode: 1
##########               Number:                13337
##########   Ligand Source File: /nfs/db/export/3D/EG/BDMO/EGBDMO.xaw.db2.gz
##########                 Rank:                    1
##########               Setnum:                    7
##########             Matchnum:                    1
##########                Cloud:                    1
##########        Electrostatic:           -40.333450
##########                 Gist:             0.000000
##########        Van der Waals:           -35.927933
##########  Ligand Polar Desolv:            17.372963
########## Ligand Apolar Desolv:            -6.444530
##########      Internal Energy:             0.000000
##########      Receptor Energy:             0.000000
########## Receptor Desolvation:             0.000000
########## Receptor Hydrophobic:             0.000000
##########         Total Energy:           -65.332947
##########        Ligand Charge:             1.000000
##########            Arbitrary:    +999.9990
##########        Ligand Energy:             0.000000

@<TRIPOS>MOLECULE
 ZINC000268141382      none
   44    47     0     0     0



@<TRIPOS>ATOM
      1 C1        -16.7406    15.6844   -19.2726 C.3        1  LIG1  -0.1700
      2 C2        -17.4882    17.0192   -19.2487 C.3        1  LIG1  -0.1200
      3 H1        -17.0337    17.7195   -19.9497 H          1  LIG1   0.1400
      4 C3        -18.9777    16.8058   -19.5940 C.3        1  LIG1   0.0000
      5 N1        -19.6541    16.6883   -18.2765 N.4        1  LIG1  -0.3700
      6 H2        -19.5244    15.7635   -17.8945 H          1  LIG1   0.4200
      7 C4        -21.0850    16.9953   -18.4044 C.3        1  LIG1  -0.0800
      8 C5        -22.0355    15.8294   -18.6834 C.3        1  LIG1  -0.1500
      9 C6        -22.0176    16.4882   -17.3026 C.3        1  LIG1  -0.1500
     10 C7        -18.9767    17.7013   -17.4268 C.3        1  LIG1  -0.0100
     11 C8        -17.4851    17.6097   -17.8236 C.3        1  LIG1   0.1300
     12 H3        -17.0317    18.6009   -17.8232 H          1  LIG1   0.1400
     13 N2        -16.7678    16.7223   -16.9048 N.am       1  LIG1  -0.7300
     14 C9        -15.7087    17.1845   -16.2111 C.2        1  LIG1   0.6000
     15 O1        -15.3485    18.3384   -16.3478 O.2        1  LIG1  -0.5000
     16 C10       -14.9885    16.2941   -15.2892 C.2        1  LIG1  -0.2500
     17 C11       -15.2992    15.0122   -15.0724 C.2        1  LIG1  -0.0100
     18 C12       -14.4822    14.3379   -14.1507 C.ar       1  LIG1  -0.1000
     19 C13       -14.5566    12.9933   -13.7155 C.ar       1  LIG1   0.0100
     20 C14       -13.6682    12.5124   -12.8056 C.ar       1  LIG1  -0.0400
     21 N3        -13.7633    11.1029   -12.3635 N.pl3      1  LIG1   0.0200
     22 O2        -14.6340    10.3806   -12.8146 O.2        1  LIG1  -0.1500
     23 O3        -12.9707    10.6655   -11.5487 O.2        1  LIG1  -0.1400
     24 C15       -12.6718    13.3297   -12.2868 C.ar       1  LIG1  -0.0300
     25 C16       -12.5735    14.6400   -12.6896 C.ar       1  LIG1  -0.0800
     26 C17       -13.4759    15.1579   -13.6241 C.ar       1  LIG1  -0.0900
     27 S1        -13.5982    16.7662   -14.3282 S.3        1  LIG1   0.1500
     28 H4        -17.2055    14.9950   -18.5679 H          1  LIG1   0.0600
     29 H5        -16.7835    15.2620   -20.2764 H          1  LIG1   0.0900
     30 H6        -15.7002    15.8456   -18.9905 H          1  LIG1   0.0900
     31 H7        -19.3664    17.6616   -20.1459 H          1  LIG1   0.1400
     32 H8        -19.1069    15.8899   -20.1707 H          1  LIG1   0.1400
     33 H9        -21.3205    17.9572   -18.8600 H          1  LIG1   0.1800
     34 H10       -22.8966    16.0239   -19.3228 H          1  LIG1   0.1400
     35 H11       -21.5990    14.8345   -18.7721 H          1  LIG1   0.1200
     36 H12       -21.5694    15.9268   -16.4829 H          1  LIG1   0.1200
     37 H13       -22.8669    17.1162   -17.0337 H          1  LIG1   0.1300
     38 H14       -19.3651    18.6972   -17.6396 H          1  LIG1   0.1500
     39 H15       -19.1050    17.4595   -16.3717 H          1  LIG1   0.1300
     40 H16       -17.0549    15.8023   -16.7957 H          1  LIG1   0.4100
     41 H17       -16.1243    14.5272   -15.5729 H          1  LIG1   0.1700
     42 H18       -15.3251    12.3444   -14.1089 H          1  LIG1   0.1700
     43 H19       -11.9728    12.9344   -11.5646 H          1  LIG1   0.1700
     44 H20       -11.7972    15.2715   -12.2833 H          1  LIG1   0.1600
@<TRIPOS>BOND
     1    1    2 1
     2    1   28 1
     3    1   29 1
     4    1   30 1
     5    2    3 1
     6    2   11 1
     7    2    4 1
     8    4    5 1
     9    4   31 1
    10    4   32 1
    11    5    6 1
    12    5    7 1
    13    5   10 1
    14    7    9 1
    15    7    8 1
    16    7   33 1
    17    8    9 1
    18    8   34 1
    19    8   35 1
    20    9   36 1
    21    9   37 1
    22   10   11 1
    23   10   38 1
    24   10   39 1
    25   11   12 1
    26   11   13 1
    27   13   14 am
    28   13   40 1
    29   14   15 2
    30   14   16 1
    31   16   27 1
    32   16   17 2
    33   17   18 1
    34   17   41 1
    35   18   26 ar
    36   18   19 ar
    37   19   20 ar
    38   19   42 1
    39   20   21 1
    40   20   24 ar
    41   21   22 2
    42   21   23 2
    43   24   25 ar
    44   24   43 1
    45   25   26 ar
    46   25   44 1
    47   26   27 1
##########                 Name:     ZINC000345928153
##########          Protonation:                 none
##########               SMILES:   CC[C@H](C(=O)NC1=CC=NN1CC)[NH+](CC)CC
##########            Long Name:   NO_LONG_NAME
##########          FlexRecCode: 1
##########               Number:                 6890
##########   Ligand Source File: /nfs/db/export/3D/CD/ADRO/CDADRO.xcpt.db2.gz
##########                 Rank:                    1
##########               Setnum:                   19
##########             Matchnum:                    1
##########                Cloud:                    1
##########        Electrostatic:           -51.291058
##########                 Gist:             0.000000
##########        Van der Waals:           -23.806046
##########  Ligand Polar Desolv:            14.950191
########## Ligand Apolar Desolv:            -3.754330
##########      Internal Energy:             0.000000
##########      Receptor Energy:             0.000000
########## Receptor Desolvation:             0.000000
########## Receptor Hydrophobic:             0.000000
##########         Total Energy:           -63.901245
##########        Ligand Charge:             1.000000
##########            Arbitrary:    +999.9990
##########        Ligand Energy:             0.000000

@<TRIPOS>MOLECULE
 ZINC000345928153      none
   43    43     0     0     0



@<TRIPOS>ATOM
      1 C1        -15.3290    16.6844   -19.2710 C.3        1  LIG1  -0.1700
      2 C2        -16.7855    16.2161   -19.2517 C.3        1  LIG1  -0.1500
      3 C3        -17.5653    17.0184   -18.2082 C.3        1  LIG1   0.0100
      4 H1        -17.5276    18.0778   -18.4619 H          1  LIG1   0.1700
      5 C4        -16.9510    16.8054   -16.8487 C.2        1  LIG1   0.5200
      6 O1        -16.5138    17.7499   -16.2259 O.2        1  LIG1  -0.4900
      7 N1        -16.8874    15.5653   -16.3248 N.am       1  LIG1  -0.6200
      8 C5        -15.8500    15.2277   -15.4558 C.2        1  LIG1   0.2800
      9 C6        -14.8435    16.0481   -15.0479 C.2        1  LIG1  -0.2600
     10 C7        -14.0215    15.3198   -14.1835 C.2        1  LIG1   0.0600
     11 N2        -14.5095    14.1108   -14.0731 N.2        1  LIG1  -0.2700
     12 N3        -15.6648    14.0273   -14.8606 N.pl3      1  LIG1  -0.3800
     13 C8        -16.5167    12.8460   -15.0188 C.3        1  LIG1   0.1200
     14 C9        -16.0094    12.0047   -16.1917 C.3        1  LIG1  -0.1700
     15 N4        -18.9636    16.5688   -18.1894 N.4        1  LIG1  -0.3700
     16 H2        -19.0359    15.7174   -17.6528 H          1  LIG1   0.4300
     17 C10       -19.8035    17.6066   -17.5766 C.3        1  LIG1  -0.0400
     18 C11       -21.2600    17.1382   -17.5572 C.3        1  LIG1  -0.1800
     19 C12       -19.4168    16.3209   -19.5646 C.3        1  LIG1  -0.0400
     20 C13       -19.3070    17.6118   -20.3783 C.3        1  LIG1  -0.1900
     21 H3        -14.7733    16.1128   -20.0144 H          1  LIG1   0.0600
     22 H4        -15.2914    17.7438   -19.5247 H          1  LIG1   0.0800
     23 H5        -14.8847    16.5302   -18.2877 H          1  LIG1   0.0900
     24 H6        -17.2298    16.3702   -20.2350 H          1  LIG1   0.1000
     25 H7        -16.8232    15.1566   -18.9980 H          1  LIG1   0.1100
     26 H8        -17.5630    14.9075   -16.5521 H          1  LIG1   0.4200
     27 H9        -14.7045    17.0784   -15.3405 H          1  LIG1   0.1700
     28 H10       -13.1350    15.6913   -13.6912 H          1  LIG1   0.1900
     29 H11       -16.4868    12.2516   -14.1056 H          1  LIG1   0.0900
     30 H12       -17.5419    13.1608   -15.2141 H          1  LIG1   0.1100
     31 H13       -16.6433    11.1257   -16.3093 H          1  LIG1   0.0700
     32 H14       -16.0392    12.5989   -17.1049 H          1  LIG1   0.0600
     33 H15       -14.9843    11.6897   -15.9963 H          1  LIG1   0.0900
     34 H16       -19.4674    17.7906   -16.5563 H          1  LIG1   0.1300
     35 H17       -19.7255    18.5264   -18.1564 H          1  LIG1   0.1600
     36 H18       -21.8832    17.9081   -17.1025 H          1  LIG1   0.0800
     37 H19       -21.5961    16.9544   -18.5776 H          1  LIG1   0.1100
     38 H20       -21.3382    16.2183   -16.9777 H          1  LIG1   0.0800
     39 H21       -18.7935    15.5507   -20.0191 H          1  LIG1   0.1400
     40 H22       -20.4543    15.9872   -19.5507 H          1  LIG1   0.1500
     41 H23       -19.6434    17.4278   -21.3987 H          1  LIG1   0.1100
     42 H24       -19.9303    18.3819   -19.9237 H          1  LIG1   0.0700
     43 H25       -18.2695    17.9455   -20.3923 H          1  LIG1   0.0800
@<TRIPOS>BOND
     1    1    2 1
     2    1   21 1
     3    1   22 1
     4    1   23 1
     5    2    3 1
     6    2   24 1
     7    2   25 1
     8    3    4 1
     9    3    5 1
    10    3   15 1
    11    5    6 2
    12    5    7 am
    13    7    8 1
    14    7   26 1
    15    8   12 1
    16    8    9 2
    17    9   10 1
    18    9   27 1
    19   10   11 2
    20   10   28 1
    21   11   12 1
    22   12   13 1
    23   13   14 1
    24   13   29 1
    25   13   30 1
    26   14   31 1
    27   14   32 1
    28   14   33 1
    29   15   16 1
    30   15   17 1
    31   15   19 1
    32   17   18 1
    33   17   34 1
    34   17   35 1
    35   18   36 1
    36   18   37 1
    37   18   38 1
    38   19   20 1
    39   19   39 1
    40   19   40 1
    41   20   41 1
    42   20   42 1
    43   20   43 1
##########                 Name:     ZINC000343998070
##########          Protonation:                 none
##########               SMILES:   FC1=CC=C(C2=CC=C(C[N@@H+]3CCC[C@H]3CN3C=CN=N3)O2)C=C1
##########            Long Name:   NO_LONG_NAME
##########          FlexRecCode: 1
##########               Number:                15121
##########   Ligand Source File: /nfs/db/export/3D/EG/ADRO/EGADRO.xaho.db2.gz
##########                 Rank:                    1
##########               Setnum:                   14
##########             Matchnum:                    1
##########                Cloud:                    1
##########        Electrostatic:           -38.957466
##########                 Gist:             0.000000
##########        Van der Waals:           -35.533760
##########  Ligand Polar Desolv:            15.523909
########## Ligand Apolar Desolv:            -6.135550
##########      Internal Energy:             0.000000
##########      Receptor Energy:             0.000000
########## Receptor Desolvation:             0.000000
########## Receptor Hydrophobic:             0.000000
##########         Total Energy:           -65.102867
##########        Ligand Charge:             1.000000
##########            Arbitrary:    +999.9990
##########        Ligand Energy:             0.000000

@<TRIPOS>MOLECULE
 ZINC000343998070      none
   44    47     0     0     0



@<TRIPOS>ATOM
      1 F1        -14.2689    10.4129   -12.5571 F          1  LIG1  -0.1300
      2 C1        -14.5898    11.5962   -13.1247 C.ar       1  LIG1   0.1300
      3 C2        -15.4258    11.6277   -14.2296 C.ar       1  LIG1  -0.1500
      4 C3        -15.7567    12.8329   -14.8128 C.ar       1  LIG1  -0.0600
      5 C4        -15.2482    14.0223   -14.2881 C.ar       1  LIG1  -0.0600
      6 C5        -15.5997    15.3168   -14.9086 C.2        1  LIG1   0.0900
      7 C6        -14.8169    16.4279   -14.9343 C.2        1  LIG1  -0.2100
      8 C7        -15.5424    17.4199   -15.6242 C.2        1  LIG1  -0.1400
      9 C8        -16.7196    16.8711   -15.9816 C.2        1  LIG1  -0.1000
     10 C9        -17.8187    17.5671   -16.7421 C.3        1  LIG1   0.1000
     11 N1        -18.3210    16.6793   -17.7992 N.4        1  LIG1  -0.3900
     12 H1        -18.6835    15.8321   -17.3883 H          1  LIG1   0.4300
     13 C10       -17.2245    16.3493   -18.7344 C.3        1  LIG1  -0.0100
     14 C11       -17.8989    16.2837   -20.1273 C.3        1  LIG1  -0.1400
     15 C12       -18.9399    17.4294   -20.0258 C.3        1  LIG1  -0.1300
     16 C13       -19.3886    17.3610   -18.5539 C.3        1  LIG1   0.0100
     17 H2        -19.5342    18.3681   -18.1634 H          1  LIG1   0.1500
     18 C14       -20.6916    16.5667   -18.4434 C.3        1  LIG1   0.1000
     19 N2        -21.7459    17.2511   -19.1959 N.pl3      1  LIG1  -0.3200
     20 C15       -22.6319    16.6633   -20.0329 C.2        1  LIG1  -0.0200
     21 C16       -23.4179    17.6572   -20.5087 C.2        1  LIG1  -0.0400
     22 N3        -22.9801    18.7895   -19.9468 N.2        1  LIG1  -0.2300
     23 N4        -21.9924    18.5141   -19.1701 N.2        1  LIG1  -0.1300
     24 O1        -16.7488    15.5986   -15.5521 O.3        1  LIG1  -0.1500
     25 C17       -14.4070    13.9847   -13.1747 C.ar       1  LIG1  -0.0600
     26 C18       -14.0866    12.7742   -12.5964 C.ar       1  LIG1  -0.1500
     27 H3        -15.8186    10.7069   -14.6347 H          1  LIG1   0.1500
     28 H4        -16.4076    12.8563   -15.6743 H          1  LIG1   0.1400
     29 H5        -13.8299    16.5307   -14.5080 H          1  LIG1   0.1600
     30 H6        -15.2164    18.4293   -15.8276 H          1  LIG1   0.1600
     31 H7        -18.6317    17.8157   -16.0596 H          1  LIG1   0.1400
     32 H8        -17.4283    18.4808   -17.1900 H          1  LIG1   0.1500
     33 H9        -16.4636    17.1295   -18.7175 H          1  LIG1   0.1400
     34 H10       -16.7857    15.3846   -18.4793 H          1  LIG1   0.1400
     35 H11       -17.1773    16.4809   -20.9202 H          1  LIG1   0.1200
     36 H12       -18.3898    15.3223   -20.2786 H          1  LIG1   0.1000
     37 H13       -18.4760    18.3919   -20.2418 H          1  LIG1   0.1100
     38 H14       -19.7806    17.2468   -20.6952 H          1  LIG1   0.1200
     39 H15       -20.5436    15.5672   -18.8525 H          1  LIG1   0.1500
     40 H16       -20.9833    16.4910   -17.3959 H          1  LIG1   0.1200
     41 H17       -22.6983    15.6124   -20.2732 H          1  LIG1   0.2000
     42 H18       -24.2370    17.5559   -21.2051 H          1  LIG1   0.2000
     43 H19       -14.0106    14.9019   -12.7648 H          1  LIG1   0.1400
     44 H20       -13.4361    12.7440   -11.7347 H          1  LIG1   0.1500
@<TRIPOS>BOND
     1    1    2 1
     2    2   26 ar
     3    2    3 ar
     4    3    4 ar
     5    3   27 1
     6    4    5 ar
     7    4   28 1
     8    5    6 1
     9    5   25 ar
    10    6   24 1
    11    6    7 2
    12    7    8 1
    13    7   29 1
    14    8    9 2
    15    8   30 1
    16    9   10 1
    17    9   24 1
    18   10   11 1
    19   10   31 1
    20   10   32 1
    21   11   12 1
    22   11   16 1
    23   11   13 1
    24   13   14 1
    25   13   33 1
    26   13   34 1
    27   14   15 1
    28   14   35 1
    29   14   36 1
    30   15   16 1
    31   15   37 1
    32   15   38 1
    33   16   17 1
    34   16   18 1
    35   18   19 1
    36   18   39 1
    37   18   40 1
    38   19   23 1
    39   19   20 1
    40   20   21 2
    41   20   41 1
    42   21   22 1
    43   21   42 1
    44   22   23 2
    45   25   26 ar
    46   25   43 1
    47   26   44 1
##########                 Name:     ZINC000375310940
##########          Protonation:                 none
##########               SMILES:   CC1=CC=CC=C1NC(=O)C[N@H+]1CC[C@]2(C1)C(=O)NC1=CC=CC=C12
##########            Long Name:   NO_LONG_NAME
##########          FlexRecCode: 1
##########               Number:                12570
##########   Ligand Source File: /nfs/db/export/3D/EF/ADMO/EFADMO.xbpn.db2.gz
##########                 Rank:                    1
##########               Setnum:                   23
##########             Matchnum:                    1
##########                Cloud:                    1
##########        Electrostatic:           -48.161652
##########                 Gist:             0.000000
##########        Van der Waals:           -33.246544
##########  Ligand Polar Desolv:            19.450115
########## Ligand Apolar Desolv:            -5.478324
##########      Internal Energy:             0.000000
##########      Receptor Energy:             0.000000
########## Receptor Desolvation:             0.000000
########## Receptor Hydrophobic:             0.000000
##########         Total Energy:           -67.436401
##########        Ligand Charge:             1.000000
##########            Arbitrary:    +999.9990
##########        Ligand Energy:             0.000000

@<TRIPOS>MOLECULE
 ZINC000375310940      none
   47    50     0     0     0



@<TRIPOS>ATOM
      1 C1        -16.1714    11.7554   -15.8309 C.3        1  LIG1  -0.1200
      2 C2        -15.5192    12.7877   -14.9478 C.ar       1  LIG1  -0.1000
      3 C3        -14.8520    12.3967   -13.8038 C.ar       1  LIG1  -0.1000
      4 C4        -14.2536    13.3436   -12.9925 C.ar       1  LIG1  -0.1100
      5 C5        -14.3210    14.6841   -13.3241 C.ar       1  LIG1  -0.1100
      6 C6        -14.9865    15.0818   -14.4673 C.ar       1  LIG1  -0.1100
      7 C7        -15.5838    14.1332   -15.2867 C.ar       1  LIG1   0.1100
      8 N1        -16.2583    14.5327   -16.4457 N.am       1  LIG1  -0.6400
      9 C8        -15.8611    15.6361   -17.1101 C.2        1  LIG1   0.5000
     10 O1        -14.9190    16.2826   -16.7033 O.2        1  LIG1  -0.5100
     11 C9        -16.5875    16.0663   -18.3583 C.3        1  LIG1  -0.0300
     12 N2        -17.9961    16.3328   -18.0378 N.4        1  LIG1  -0.3800
     13 H1        -18.3422    15.6422   -17.3889 H          1  LIG1   0.4400
     14 C10       -18.1417    17.6952   -17.4622 C.3        1  LIG1  -0.0100
     15 C11       -19.6326    18.0364   -17.7220 C.3        1  LIG1  -0.1100
     16 C12       -19.8906    17.3977   -19.0959 C.3        1  LIG1  -0.0700
     17 C13       -18.8115    16.3254   -19.2749 C.3        1  LIG1   0.0200
     18 C14       -19.8375    18.4264   -20.1924 C.2        1  LIG1   0.5400
     19 O2        -18.8934    19.1327   -20.4775 O.2        1  LIG1  -0.4800
     20 N3        -21.0413    18.4106   -20.7963 N.am       1  LIG1  -0.6500
     21 C15       -21.9059    17.4756   -20.2231 C.ar       1  LIG1   0.1500
     22 C16       -23.2212    17.1413   -20.5351 C.ar       1  LIG1  -0.1300
     23 C17       -23.8794    16.1662   -19.8141 C.ar       1  LIG1  -0.0600
     24 C18       -23.2394    15.5134   -18.7770 C.ar       1  LIG1  -0.1300
     25 C19       -21.9326    15.8402   -18.4595 C.ar       1  LIG1  -0.0600
     26 C20       -21.2723    16.8130   -19.1755 C.ar       1  LIG1  -0.1600
     27 H2        -16.0164    10.7637   -15.4059 H          1  LIG1   0.0800
     28 H3        -17.2402    11.9585   -15.8989 H          1  LIG1   0.0800
     29 H4        -15.7295    11.7973   -16.8264 H          1  LIG1   0.0600
     30 H5        -14.7977    11.3503   -13.5421 H          1  LIG1   0.1300
     31 H6        -13.7330    13.0352   -12.0979 H          1  LIG1   0.1300
     32 H7        -13.8530    15.4212   -12.6884 H          1  LIG1   0.1300
     33 H8        -15.0390    16.1292   -14.7256 H          1  LIG1   0.1400
     34 H9        -17.0117    14.0157   -16.7710 H          1  LIG1   0.4200
     35 H10       -16.1269    16.9720   -18.7529 H          1  LIG1   0.1600
     36 H11       -16.5284    15.2739   -19.1046 H          1  LIG1   0.1600
     37 H12       -17.9304    17.6852   -16.3928 H          1  LIG1   0.1600
     38 H13       -17.4903    18.4016   -17.9769 H          1  LIG1   0.1400
     39 H14       -20.2703    17.5870   -16.9608 H          1  LIG1   0.1200
     40 H15       -19.7806    19.1157   -17.7636 H          1  LIG1   0.1200
     41 H16       -18.1859    16.5657   -20.1346 H          1  LIG1   0.1400
     42 H17       -19.2755    15.3486   -19.4122 H          1  LIG1   0.1500
     43 H18       -21.2800    18.9823   -21.5426 H          1  LIG1   0.4300
     44 H19       -23.7279    17.6470   -21.3437 H          1  LIG1   0.1400
     45 H20       -24.8994    15.9115   -20.0613 H          1  LIG1   0.1400
     46 H21       -23.7582    14.7505   -18.2155 H          1  LIG1   0.1400
     47 H22       -21.4307    15.3321   -17.6493 H          1  LIG1   0.1300
@<TRIPOS>BOND
     1    1    2 1
     2    1   27 1
     3    1   28 1
     4    1   29 1
     5    2    7 ar
     6    2    3 ar
     7    3    4 ar
     8    3   30 1
     9    4    5 ar
    10    4   31 1
    11    5    6 ar
    12    5   32 1
    13    6    7 ar
    14    6   33 1
    15    7    8 1
    16    8    9 am
    17    8   34 1
    18    9   10 2
    19    9   11 1
    20   11   12 1
    21   11   35 1
    22   11   36 1
    23   12   13 1
    24   12   17 1
    25   12   14 1
    26   14   15 1
    27   14   37 1
    28   14   38 1
    29   15   16 1
    30   15   39 1
    31   15   40 1
    32   16   26 1
    33   16   17 1
    34   16   18 1
    35   17   41 1
    36   17   42 1
    37   18   19 2
    38   18   20 am
    39   20   21 1
    40   20   43 1
    41   21   26 ar
    42   21   22 ar
    43   22   23 ar
    44   22   44 1
    45   23   24 ar
    46   23   45 1
    47   24   25 ar
    48   24   46 1
    49   25   26 ar
    50   25   47 1
##########                 Name:     ZINC000362430581
##########          Protonation:                 none
##########               SMILES:   C[C@H](C(=O)NCC1=CC=CC=C1Cl)[N@@H+]1C[C@H](C)[C@H](C)C1
##########            Long Name:   NO_LONG_NAME
##########          FlexRecCode: 1
##########               Number:                 2987
##########   Ligand Source File: /nfs/db/export/3D/CF/ADRO/CFADRO.xagd.db2.gz
##########                 Rank:                    1
##########               Setnum:                  103
##########             Matchnum:                    1
##########                Cloud:                    1
##########        Electrostatic:           -45.387104
##########                 Gist:             0.000000
##########        Van der Waals:           -27.632278
##########  Ligand Polar Desolv:            11.131873
########## Ligand Apolar Desolv:            -4.960602
##########      Internal Energy:             0.000000
##########      Receptor Energy:             0.000000
########## Receptor Desolvation:             0.000000
########## Receptor Hydrophobic:             0.000000
##########         Total Energy:           -66.848106
##########        Ligand Charge:             1.000000
##########            Arbitrary:    +999.9990
##########        Ligand Energy:             0.000000

@<TRIPOS>MOLECULE
 ZINC000362430581      none
   44    45     0     0     0



@<TRIPOS>ATOM
      1 C1        -16.7258    16.1328   -19.3273 C.3        1  LIG1  -0.1800
      2 C2        -17.7930    16.9940   -18.6487 C.3        1  LIG1   0.0100
      3 H1        -17.8401    17.9669   -19.1381 H          1  LIG1   0.1600
      4 C3        -17.4398    17.1793   -17.1955 C.2        1  LIG1   0.5100
      5 O1        -17.2586    18.2936   -16.7526 O.2        1  LIG1  -0.5200
      6 N1        -17.3251    16.1062   -16.3878 N.am       1  LIG1  -0.7000
      7 C4        -16.9817    16.2863   -14.9751 C.3        1  LIG1   0.1600
      8 C5        -15.6949    15.5615   -14.6747 C.ar       1  LIG1  -0.1200
      9 C6        -15.7243    14.2418   -14.2661 C.ar       1  LIG1  -0.0800
     10 C7        -14.5438    13.5768   -13.9903 C.ar       1  LIG1  -0.1100
     11 C8        -13.3339    14.2316   -14.1229 C.ar       1  LIG1  -0.0900
     12 C9        -13.3032    15.5519   -14.5316 C.ar       1  LIG1  -0.1100
     13 C10       -14.4836    16.2158   -14.8134 C.ar       1  LIG1  -0.0200
     14 Cl1       -14.4459    17.8738   -15.3269 Cl         1  LIG1  -0.0600
     15 N2        -19.0987    16.3290   -18.7543 N.4        1  LIG1  -0.3800
     16 H2        -19.0008    15.3349   -18.6128 H          1  LIG1   0.4300
     17 C11       -19.7182    16.6074   -20.0756 C.3        1  LIG1   0.0000
     18 C12       -21.2270    16.3647   -19.8566 C.3        1  LIG1  -0.1100
     19 H3        -21.4937    15.3494   -20.1505 H          1  LIG1   0.1100
     20 C13       -22.0496    17.3805   -20.6518 C.3        1  LIG1  -0.1500
     21 C14       -21.4488    16.5599   -18.3426 C.3        1  LIG1  -0.1100
     22 H4        -21.8244    15.6406   -17.8933 H          1  LIG1   0.1100
     23 C15       -22.4261    17.7102   -18.0927 C.3        1  LIG1  -0.1500
     24 C16       -20.0545    16.9021   -17.7720 C.3        1  LIG1  -0.0100
     25 H5        -16.6787    15.1600   -18.8379 H          1  LIG1   0.1100
     26 H6        -16.9813    15.9989   -20.3783 H          1  LIG1   0.0900
     27 H7        -15.7570    16.6262   -19.2490 H          1  LIG1   0.1000
     28 H8        -17.4701    15.2150   -16.7420 H          1  LIG1   0.4100
     29 H9        -16.8583    17.3484   -14.7636 H          1  LIG1   0.0900
     30 H10       -17.7800    15.8822   -14.3527 H          1  LIG1   0.0900
     31 H11       -16.6694    13.7298   -14.1617 H          1  LIG1   0.1400
     32 H12       -14.5672    12.5453   -13.6710 H          1  LIG1   0.1400
     33 H13       -12.4121    13.7119   -13.9067 H          1  LIG1   0.1400
     34 H14       -12.3577    16.0634   -14.6350 H          1  LIG1   0.1400
     35 H15       -19.5382    17.6415   -20.3695 H          1  LIG1   0.1300
     36 H16       -19.3286    15.9236   -20.8297 H          1  LIG1   0.1400
     37 H17       -23.1113    17.1967   -20.4874 H          1  LIG1   0.0700
     38 H18       -21.7999    18.3888   -20.3211 H          1  LIG1   0.0800
     39 H19       -21.8235    17.2799   -21.7133 H          1  LIG1   0.0700
     40 H20       -22.5728    17.8359   -17.0200 H          1  LIG1   0.0800
     41 H21       -22.0204    18.6299   -18.5141 H          1  LIG1   0.0700
     42 H22       -23.3818    17.4844   -18.5659 H          1  LIG1   0.0700
     43 H23       -19.9207    16.4412   -16.7933 H          1  LIG1   0.1500
     44 H24       -19.9257    17.9823   -17.7052 H          1  LIG1   0.1300
@<TRIPOS>BOND
     1    1    2 1
     2    1   25 1
     3    1   26 1
     4    1   27 1
     5    2    3 1
     6    2    4 1
     7    2   15 1
     8    4    5 2
     9    4    6 am
    10    6    7 1
    11    6   28 1
    12    7    8 1
    13    7   29 1
    14    7   30 1
    15    8   13 ar
    16    8    9 ar
    17    9   10 ar
    18    9   31 1
    19   10   11 ar
    20   10   32 1
    21   11   12 ar
    22   11   33 1
    23   12   13 ar
    24   12   34 1
    25   13   14 1
    26   15   16 1
    27   15   24 1
    28   15   17 1
    29   17   18 1
    30   17   35 1
    31   17   36 1
    32   18   19 1
    33   18   20 1
    34   18   21 1
    35   20   37 1
    36   20   38 1
    37   20   39 1
    38   21   22 1
    39   21   23 1
    40   21   24 1
    41   23   40 1
    42   23   41 1
    43   23   42 1
    44   24   43 1
    45   24   44 1
##########                 Name:     ZINC000495211316
##########          Protonation:                 none
##########               SMILES:   CC[C@]1(O)CC[N@H+](CC(=O)NCC2=CC=C(F)C=C2C(F)(F)F)C1
##########            Long Name:   NO_LONG_NAME
##########          FlexRecCode: 1
##########               Number:                 5629
##########   Ligand Source File: /nfs/db/export/3D/EE/ADRO/EEADRO.xcyz.db2.gz
##########                 Rank:                    1
##########               Setnum:                  518
##########             Matchnum:                    1
##########                Cloud:                    1
##########        Electrostatic:           -46.441360
##########                 Gist:             0.000000
##########        Van der Waals:           -31.715464
##########  Ligand Polar Desolv:            10.255372
########## Ligand Apolar Desolv:            -3.576077
##########      Internal Energy:             0.000000
##########      Receptor Energy:             0.000000
########## Receptor Desolvation:             0.000000
########## Receptor Hydrophobic:             0.000000
##########         Total Energy:           -71.477524
##########        Ligand Charge:             1.000000
##########            Arbitrary:    +999.9990
##########        Ligand Energy:             0.000000

@<TRIPOS>MOLECULE
 ZINC000495211316      none
   45    46     0     0     0



@<TRIPOS>ATOM
      1 C1        -22.8049    16.9387   -20.1998 C.3        1  LIG1  -0.1600
      2 C2        -21.2869    16.9329   -20.3915 C.3        1  LIG1  -0.1400
      3 C3        -20.6092    16.5226   -19.0826 C.3        1  LIG1   0.1200
      4 O1        -21.0931    15.2549   -18.6343 O.3        1  LIG1  -0.5500
      5 C4        -20.8022    17.6092   -17.9923 C.3        1  LIG1  -0.1700
      6 C5        -19.5801    17.4005   -17.0734 C.3        1  LIG1   0.0000
      7 N1        -18.5485    16.7096   -17.8685 N.4        1  LIG1  -0.3700
      8 H1        -18.3374    15.8167   -17.4485 H          1  LIG1   0.4400
      9 C6        -17.3324    17.5319   -17.9220 C.3        1  LIG1  -0.0300
     10 C7        -16.5531    17.3596   -16.6438 C.2        1  LIG1   0.5000
     11 O2        -16.7637    18.0935   -15.7014 O.2        1  LIG1  -0.5200
     12 N2        -15.6218    16.3900   -16.5477 N.am       1  LIG1  -0.7000
     13 C8        -14.8641    16.2226   -15.3051 C.3        1  LIG1   0.1400
     14 C9        -15.1051    14.8417   -14.7519 C.ar       1  LIG1  -0.0900
     15 C10       -15.9356    13.9640   -15.4234 C.ar       1  LIG1  -0.0700
     16 C11       -16.1570    12.6971   -14.9172 C.ar       1  LIG1  -0.1200
     17 C12       -15.5466    12.3072   -13.7374 C.ar       1  LIG1   0.1200
     18 F1        -15.7621    11.0688   -13.2420 F          1  LIG1  -0.1200
     19 C13       -14.7149    13.1872   -13.0657 C.ar       1  LIG1  -0.1100
     20 C14       -14.4908    14.4515   -13.5763 C.ar       1  LIG1  -0.1400
     21 C15       -13.5858    15.4095   -12.8455 C.3        1  LIG1   0.5100
     22 F2        -13.5251    16.6195   -13.5451 F          1  LIG1  -0.1700
     23 F3        -14.0893    15.6386   -11.5605 F          1  LIG1  -0.1800
     24 F4        -12.3027    14.8599   -12.7523 F          1  LIG1  -0.1700
     25 C16       -19.0680    16.5050   -19.2376 C.3        1  LIG1   0.0000
     26 H2        -23.2877    17.2311   -21.1323 H          1  LIG1   0.0600
     27 H3        -23.1389    15.9411   -19.9148 H          1  LIG1   0.0600
     28 H4        -23.0694    17.6482   -19.4157 H          1  LIG1   0.0700
     29 H5        -21.0225    16.2234   -21.1756 H          1  LIG1   0.0900
     30 H6        -20.9529    17.9306   -20.6764 H          1  LIG1   0.0800
     31 H7        -20.6933    14.9512   -17.8079 H          1  LIG1   0.4000
     32 H8        -20.7866    18.6055   -18.4341 H          1  LIG1   0.1100
     33 H9        -21.7295    17.4443   -17.4438 H          1  LIG1   0.1200
     34 H10       -19.2025    18.3650   -16.7339 H          1  LIG1   0.1300
     35 H11       -19.8606    16.7874   -16.2169 H          1  LIG1   0.1400
     36 H12       -16.7188    17.2186   -18.7666 H          1  LIG1   0.1600
     37 H13       -17.6074    18.5799   -18.0414 H          1  LIG1   0.1600
     38 H14       -15.4533    15.8030   -17.3013 H          1  LIG1   0.4100
     39 H15       -13.8010    16.3525   -15.5075 H          1  LIG1   0.1000
     40 H16       -15.1892    16.9670   -14.5781 H          1  LIG1   0.1000
     41 H17       -16.4118    14.2686   -16.3436 H          1  LIG1   0.1500
     42 H18       -16.8061    12.0117   -15.4418 H          1  LIG1   0.1600
     43 H19       -14.2385    12.8842   -12.1450 H          1  LIG1   0.1600
     44 H20       -18.7368    15.5433   -19.6292 H          1  LIG1   0.1500
     45 H21       -18.7431    17.3143   -19.8916 H          1  LIG1   0.1500
@<TRIPOS>BOND
     1    1    2 1
     2    1   26 1
     3    1   27 1
     4    1   28 1
     5    2    3 1
     6    2   29 1
     7    2   30 1
     8    3   25 1
     9    3    4 1
    10    3    5 1
    11    4   31 1
    12    5    6 1
    13    5   32 1
    14    5   33 1
    15    6    7 1
    16    6   34 1
    17    6   35 1
    18    7    8 1
    19    7    9 1
    20    7   25 1
    21    9   10 1
    22    9   36 1
    23    9   37 1
    24   10   11 2
    25   10   12 am
    26   12   13 1
    27   12   38 1
    28   13   14 1
    29   13   39 1
    30   13   40 1
    31   14   20 ar
    32   14   15 ar
    33   15   16 ar
    34   15   41 1
    35   16   17 ar
    36   16   42 1
    37   17   18 1
    38   17   19 ar
    39   19   20 ar
    40   19   43 1
    41   20   21 1
    42   21   22 1
    43   21   23 1
    44   21   24 1
    45   25   44 1
    46   25   45 1
##########                 Name:     ZINC000080960915
##########          Protonation:                 none
##########               SMILES:   COC1=CC=CC=C1CNC(=O)[C@H](C)[N@@H+]1CCC[C@H](C2=NC=CN2)C1
##########            Long Name:   NO_LONG_NAME
##########          FlexRecCode: 1
##########               Number:                 7391
##########   Ligand Source File: /nfs/db/export/3D/EE/ADRO/EEADRO.xbmm.db2.gz
##########                 Rank:                    1
##########               Setnum:                  163
##########             Matchnum:                    1
##########                Cloud:                    1
##########        Electrostatic:           -43.194061
##########                 Gist:             0.000000
##########        Van der Waals:           -36.475716
##########  Ligand Polar Desolv:            16.882055
########## Ligand Apolar Desolv:            -4.462315
##########      Internal Energy:             0.000000
##########      Receptor Energy:             0.000000
########## Receptor Desolvation:             0.000000
########## Receptor Hydrophobic:             0.000000
##########         Total Energy:           -67.250038
##########        Ligand Charge:             1.000000
##########            Arbitrary:    +999.9990
##########        Ligand Energy:             0.000000

@<TRIPOS>MOLECULE
 ZINC000080960915      none
   52    54     0     0     0



@<TRIPOS>ATOM
      1 C1        -16.4546    12.0384   -16.2344 C.3        1  LIG1   0.0200
      2 O1        -15.8211    13.2477   -15.8121 O.3        1  LIG1  -0.3200
      3 C2        -15.0313    13.1775   -14.7082 C.ar       1  LIG1   0.1500
      4 C3        -14.8650    11.9686   -14.0488 C.ar       1  LIG1  -0.2100
      5 C4        -14.0612    11.8997   -12.9271 C.ar       1  LIG1  -0.0600
      6 C5        -13.4233    13.0344   -12.4616 C.ar       1  LIG1  -0.1600
      7 C6        -13.5880    14.2410   -13.1170 C.ar       1  LIG1  -0.0600
      8 C7        -14.3855    14.3138   -14.2424 C.ar       1  LIG1  -0.1600
      9 C8        -14.5640    15.6288   -14.9564 C.3        1  LIG1   0.1700
     10 N1        -15.9820    15.8276   -15.2664 N.am       1  LIG1  -0.6900
     11 C9        -16.3815    16.9433   -15.9082 C.2        1  LIG1   0.5000
     12 O2        -15.5671    17.7828   -16.2292 O.2        1  LIG1  -0.5200
     13 C10       -17.8402    17.1478   -16.2270 C.3        1  LIG1   0.0100
     14 H1        -18.0648    18.2143   -16.2330 H          1  LIG1   0.1500
     15 C11       -18.6962    16.4522   -15.1667 C.3        1  LIG1  -0.1800
     16 N2        -18.1374    16.5773   -17.5478 N.4        1  LIG1  -0.3700
     17 H2        -18.2502    15.5783   -17.4639 H          1  LIG1   0.4300
     18 C12       -17.0288    16.8676   -18.4652 C.3        1  LIG1  -0.0200
     19 C13       -17.2959    16.2068   -19.8192 C.3        1  LIG1  -0.1400
     20 C14       -18.6004    16.7582   -20.4017 C.3        1  LIG1  -0.1400
     21 C15       -19.7363    16.5159   -19.4035 C.3        1  LIG1  -0.0100
     22 H3        -19.8745    15.4439   -19.2626 H          1  LIG1   0.1300
     23 C16       -21.0099    17.1222   -19.9338 C.2        1  LIG1   0.1800
     24 N3        -21.1930    18.3838   -20.2132 N.2        1  LIG1  -0.4700
     25 C17       -22.4446    18.5603   -20.6622 C.2        1  LIG1  -0.0200
     26 C18       -23.0605    17.3626   -20.6609 C.2        1  LIG1  -0.0300
     27 N4        -22.1491    16.4491   -20.2040 N.pl3      1  LIG1  -0.5600
     28 C19       -19.3778    17.1666   -18.0656 C.3        1  LIG1  -0.0100
     29 H4        -17.0537    12.2336   -17.1238 H          1  LIG1   0.1000
     30 H5        -15.6949    11.2915   -16.4648 H          1  LIG1   0.0600
     31 H6        -17.0983    11.6677   -15.4368 H          1  LIG1   0.0600
     32 H7        -15.3636    11.0818   -14.4117 H          1  LIG1   0.1300
     33 H8        -13.9313    10.9586   -12.4133 H          1  LIG1   0.1300
     34 H9        -12.7958    12.9787   -11.5845 H          1  LIG1   0.1300
     35 H10       -13.0889    15.1261   -12.7512 H          1  LIG1   0.1300
     36 H11       -14.2146    16.4397   -14.3172 H          1  LIG1   0.0900
     37 H12       -13.9875    15.6212   -15.8814 H          1  LIG1   0.0900
     38 H13       -16.6334    15.1561   -15.0097 H          1  LIG1   0.4100
     39 H14       -19.7513    16.6000   -15.3973 H          1  LIG1   0.1000
     40 H15       -18.4717    15.3856   -15.1607 H          1  LIG1   0.0900
     41 H16       -18.4757    16.8753   -14.1868 H          1  LIG1   0.1100
     42 H17       -16.9412    17.9458   -18.5985 H          1  LIG1   0.1300
     43 H18       -16.1006    16.4774   -18.0477 H          1  LIG1   0.1400
     44 H19       -16.4726    16.4249   -20.4993 H          1  LIG1   0.1200
     45 H20       -17.3835    15.1283   -19.6868 H          1  LIG1   0.1000
     46 H21       -18.4955    17.8280   -20.5819 H          1  LIG1   0.0800
     47 H22       -18.8245    16.2495   -21.3393 H          1  LIG1   0.1000
     48 H23       -22.8818    19.4984   -20.9706 H          1  LIG1   0.1800
     49 H24       -24.0767    17.1609   -20.9657 H          1  LIG1   0.1900
     50 H25       -22.2960    15.4971   -20.0901 H          1  LIG1   0.4200
     51 H26       -20.1841    16.9968   -17.3521 H          1  LIG1   0.1400
     52 H27       -19.2403    18.2385   -18.2089 H          1  LIG1   0.1300
@<TRIPOS>BOND
     1    1    2 1
     2    1   29 1
     3    1   30 1
     4    1   31 1
     5    2    3 1
     6    3    8 ar
     7    3    4 ar
     8    4    5 ar
     9    4   32 1
    10    5    6 ar
    11    5   33 1
    12    6    7 ar
    13    6   34 1
    14    7    8 ar
    15    7   35 1
    16    8    9 1
    17    9   10 1
    18    9   36 1
    19    9   37 1
    20   10   11 am
    21   10   38 1
    22   11   12 2
    23   11   13 1
    24   13   14 1
    25   13   15 1
    26   13   16 1
    27   15   39 1
    28   15   40 1
    29   15   41 1
    30   16   17 1
    31   16   28 1
    32   16   18 1
    33   18   19 1
    34   18   42 1
    35   18   43 1
    36   19   20 1
    37   19   44 1
    38   19   45 1
    39   20   21 1
    40   20   46 1
    41   20   47 1
    42   21   22 1
    43   21   23 1
    44   21   28 1
    45   23   27 1
    46   23   24 2
    47   24   25 1
    48   25   26 2
    49   25   48 1
    50   26   27 1
    51   26   49 1
    52   27   50 1
    53   28   51 1
    54   28   52 1
##########                 Name:     ZINC000367447199
##########          Protonation:                 none
##########               SMILES:   O=C(C[N@H+]1CC[C@@]2(C1)CCCOC2)NC1=C2C=CC=CC2=CC=C1
##########            Long Name:   NO_LONG_NAME
##########          FlexRecCode: 1
##########               Number:                 3653
##########   Ligand Source File: /nfs/db/export/3D/DG/ADMO/DGADMO.xadc.db2.gz
##########                 Rank:                    1
##########               Setnum:                  113
##########             Matchnum:                    1
##########                Cloud:                    1
##########        Electrostatic:           -48.564766
##########                 Gist:             0.000000
##########        Van der Waals:           -31.897476
##########  Ligand Polar Desolv:            17.169243
########## Ligand Apolar Desolv:            -5.641154
##########      Internal Energy:             0.000000
##########      Receptor Energy:             0.000000
########## Receptor Desolvation:             0.000000
########## Receptor Hydrophobic:             0.000000
##########         Total Energy:           -68.934151
##########        Ligand Charge:             1.000000
##########            Arbitrary:    +999.9990
##########        Ligand Energy:             0.000000

@<TRIPOS>MOLECULE
 ZINC000367447199      none
   49    52     0     0     0



@<TRIPOS>ATOM
      1 O1        -15.2294    16.6308   -17.6787 O.2        1  LIG1  -0.5100
      2 C1        -16.2026    15.9078   -17.7134 C.2        1  LIG1   0.5000
      3 C2        -17.0893    15.8959   -18.9318 C.3        1  LIG1  -0.0200
      4 N1        -18.4751    16.3010   -18.5436 N.4        1  LIG1  -0.3800
      5 H1        -18.8214    15.5999   -17.8250 H          1  LIG1   0.4300
      6 C3        -18.5688    17.6710   -17.9010 C.3        1  LIG1  -0.0100
      7 C4        -19.6233    18.4122   -18.7085 C.3        1  LIG1  -0.1300
      8 C5        -20.5137    17.3164   -19.3031 C.3        1  LIG1  -0.1100
      9 C6        -19.4654    16.2667   -19.6909 C.3        1  LIG1   0.0000
     10 C7        -21.5197    16.7772   -18.2602 C.3        1  LIG1  -0.1200
     11 C8        -22.5249    15.8094   -18.8826 C.3        1  LIG1  -0.1600
     12 C9        -23.1411    16.3992   -20.1425 C.3        1  LIG1   0.0500
     13 O2        -22.1273    16.7939   -21.0642 O.3        1  LIG1  -0.3700
     14 C10       -21.2872    17.8178   -20.5298 C.3        1  LIG1   0.0700
     15 N2        -16.4878    15.1110   -16.6646 N.am       1  LIG1  -0.6400
     16 C11       -15.6663    15.1219   -15.5358 C.ar       1  LIG1   0.1200
     17 C12       -15.5186    13.9582   -14.7516 C.ar       1  LIG1  -0.0500
     18 C13       -16.1867    12.7685   -15.0809 C.ar       1  LIG1  -0.1200
     19 C14       -16.0205    11.6643   -14.3016 C.ar       1  LIG1  -0.1000
     20 C15       -15.1957    11.6968   -13.1789 C.ar       1  LIG1  -0.1100
     21 C16       -14.5327    12.8329   -12.8293 C.ar       1  LIG1  -0.0900
     22 C17       -14.6793    13.9923   -13.6107 C.ar       1  LIG1  -0.0400
     23 C18       -14.0098    15.1825   -13.2799 C.ar       1  LIG1  -0.1000
     24 C19       -14.1699    16.2905   -14.0550 C.ar       1  LIG1  -0.1100
     25 C20       -14.9878    16.2678   -15.1807 C.ar       1  LIG1  -0.1000
     26 H2        -16.7001    16.5957   -19.6714 H          1  LIG1   0.1600
     27 H3        -17.1098    14.8923   -19.3566 H          1  LIG1   0.1600
     28 H4        -18.8661    17.5602   -16.8512 H          1  LIG1   0.1500
     29 H5        -17.5921    18.1665   -17.9584 H          1  LIG1   0.1300
     30 H6        -20.2183    19.0833   -18.0650 H          1  LIG1   0.1100
     31 H7        -19.1611    19.0100   -19.5132 H          1  LIG1   0.1200
     32 H8        -18.9646    16.5456   -20.5999 H          1  LIG1   0.1400
     33 H9        -19.9084    15.2895   -19.7512 H          1  LIG1   0.1400
     34 H10       -20.9603    16.2670   -17.4611 H          1  LIG1   0.0800
     35 H11       -22.0538    17.6287   -17.8117 H          1  LIG1   0.0900
     36 H12       -22.0165    14.8660   -19.1296 H          1  LIG1   0.0700
     37 H13       -23.3186    15.5906   -18.1536 H          1  LIG1   0.0900
     38 H14       -23.7899    15.6533   -20.6169 H          1  LIG1   0.1100
     39 H15       -23.7496    17.2724   -19.8789 H          1  LIG1   0.0600
     40 H16       -21.9006    18.6787   -20.2394 H          1  LIG1   0.0700
     41 H17       -20.5731    18.1411   -21.2962 H          1  LIG1   0.1000
     42 H18       -17.2639    14.5299   -16.6940 H          1  LIG1   0.4200
     43 H19       -16.8296    12.7291   -15.9478 H          1  LIG1   0.1200
     44 H20       -16.5356    10.7502   -14.5573 H          1  LIG1   0.1300
     45 H21       -15.0811    10.8074   -12.5771 H          1  LIG1   0.1300
     46 H22       -13.8975    12.8436   -11.9560 H          1  LIG1   0.1400
     47 H23       -13.3690    15.2186   -12.4113 H          1  LIG1   0.1400
     48 H24       -13.6518    17.2013   -13.7933 H          1  LIG1   0.1300
     49 H25       -15.0976    17.1602   -15.7789 H          1  LIG1   0.1400
@<TRIPOS>BOND
     1    1    2 2
     2    2    3 1
     3    2   15 am
     4    3    4 1
     5    3   26 1
     6    3   27 1
     7    4    5 1
     8    4    9 1
     9    4    6 1
    10    6    7 1
    11    6   28 1
    12    6   29 1
    13    7    8 1
    14    7   30 1
    15    7   31 1
    16    8   14 1
    17    8    9 1
    18    8   10 1
    19    9   32 1
    20    9   33 1
    21   10   11 1
    22   10   34 1
    23   10   35 1
    24   11   12 1
    25   11   36 1
    26   11   37 1
    27   12   13 1
    28   12   38 1
    29   12   39 1
    30   13   14 1
    31   14   40 1
    32   14   41 1
    33   15   16 1
    34   15   42 1
    35   16   25 ar
    36   16   17 ar
    37   17   22 ar
    38   17   18 ar
    39   18   19 ar
    40   18   43 1
    41   19   20 ar
    42   19   44 1
    43   20   21 ar
    44   20   45 1
    45   21   22 ar
    46   21   46 1
    47   22   23 ar
    48   23   24 ar
    49   23   47 1
    50   24   25 ar
    51   24   48 1
    52   25   49 1
##########                 Name:     ZINC000464771011
##########          Protonation:                 none
##########               SMILES:   CCS[C@H]1CC[C@@H]([N@@H+](C)CC(=O)NC2=CC=C(C)C(C)=C2)C1
##########            Long Name:   NO_LONG_NAME
##########          FlexRecCode: 1
##########               Number:                13466
##########   Ligand Source File: /nfs/db/export/3D/DH/ADMO/DHADMO.xbr.db2.gz
##########                 Rank:                    1
##########               Setnum:                  110
##########             Matchnum:                    1
##########                Cloud:                    1
##########        Electrostatic:           -41.483624
##########                 Gist:             0.000000
##########        Van der Waals:           -32.142159
##########  Ligand Polar Desolv:            15.628214
########## Ligand Apolar Desolv:            -6.892774
##########      Internal Energy:             0.000000
##########      Receptor Energy:             0.000000
########## Receptor Desolvation:             0.000000
########## Receptor Hydrophobic:             0.000000
##########         Total Energy:           -64.890335
##########        Ligand Charge:             1.000000
##########            Arbitrary:    +999.9990
##########        Ligand Energy:             0.000000

@<TRIPOS>MOLECULE
 ZINC000464771011      none
   51    52     0     0     0



@<TRIPOS>ATOM
      1 C1        -23.4331    18.4219   -20.8033 C.3        1  LIG1  -0.1400
      2 C2        -23.6193    17.1763   -19.9348 C.3        1  LIG1  -0.0900
      3 S1        -22.1913    16.0766   -20.1408 S.3        1  LIG1  -0.2300
      4 C3        -20.8012    17.1062   -19.5944 C.3        1  LIG1  -0.0700
      5 H1        -20.7247    18.0011   -20.2120 H          1  LIG1   0.1100
      6 C4        -20.9635    17.4879   -18.1085 C.3        1  LIG1  -0.1200
      7 C5        -19.5550    17.4545   -17.4898 C.3        1  LIG1  -0.1400
      8 C6        -18.5861    17.0536   -18.6213 C.3        1  LIG1   0.0200
      9 H2        -18.1494    17.9400   -19.0815 H          1  LIG1   0.1500
     10 N1        -17.5312    16.1707   -18.1060 N.4        1  LIG1  -0.3700
     11 H3        -17.9488    15.3368   -17.7211 H          1  LIG1   0.4300
     12 C7        -16.6225    15.8031   -19.2002 C.3        1  LIG1  -0.0600
     13 C8        -16.7767    16.8696   -17.0569 C.3        1  LIG1  -0.0300
     14 C9        -16.0514    15.8613   -16.2034 C.2        1  LIG1   0.5000
     15 O1        -14.8420    15.8958   -16.1197 O.2        1  LIG1  -0.5100
     16 N2        -16.7469    14.9214   -15.5330 N.am       1  LIG1  -0.6400
     17 C10       -16.0734    13.9854   -14.7405 C.ar       1  LIG1   0.1100
     18 C11       -16.6018    12.7132   -14.5659 C.ar       1  LIG1  -0.1300
     19 C12       -15.9345    11.7914   -13.7829 C.ar       1  LIG1  -0.1000
     20 C13       -14.7422    12.1344   -13.1729 C.ar       1  LIG1  -0.0800
     21 C14       -14.0171    11.1263   -12.3190 C.3        1  LIG1  -0.1300
     22 C15       -14.2130    13.4006   -13.3451 C.ar       1  LIG1  -0.0700
     23 C16       -12.9126    13.7699   -12.6793 C.3        1  LIG1  -0.1200
     24 C17       -14.8722    14.3248   -14.1314 C.ar       1  LIG1  -0.1100
     25 C18       -19.4791    16.3008   -19.6407 C.3        1  LIG1  -0.1100
     26 H4        -24.2910    19.0828   -20.6796 H          1  LIG1   0.0800
     27 H5        -22.5256    18.9441   -20.5001 H          1  LIG1   0.0700
     28 H6        -23.3500    18.1264   -21.8493 H          1  LIG1   0.0700
     29 H7        -23.7023    17.4718   -18.8888 H          1  LIG1   0.0800
     30 H8        -24.5267    16.6541   -20.2380 H          1  LIG1   0.0800
     31 H9        -21.3847    18.4898   -18.0243 H          1  LIG1   0.0900
     32 H10       -21.6091    16.7675   -17.6063 H          1  LIG1   0.1000
     33 H11       -19.2927    18.4401   -17.1053 H          1  LIG1   0.1000
     34 H12       -19.5171    16.7179   -16.6873 H          1  LIG1   0.0900
     35 H13       -15.8397    15.1479   -18.8178 H          1  LIG1   0.1200
     36 H14       -17.1822    15.2845   -19.9786 H          1  LIG1   0.1400
     37 H15       -16.1712    16.7040   -19.6160 H          1  LIG1   0.1300
     38 H16       -16.0540    17.5433   -17.5168 H          1  LIG1   0.1600
     39 H17       -17.4646    17.4435   -16.4360 H          1  LIG1   0.1600
     40 H18       -17.7141    14.8940   -15.5999 H          1  LIG1   0.4200
     41 H19       -17.5335    12.4448   -15.0416 H          1  LIG1   0.1300
     42 H20       -16.3450    10.8016   -13.6468 H          1  LIG1   0.1300
     43 H21       -13.1044    11.5732   -11.9251 H          1  LIG1   0.0800
     44 H22       -14.6589    10.8222   -11.4921 H          1  LIG1   0.0800
     45 H23       -13.7639    10.2544   -12.9220 H          1  LIG1   0.0700
     46 H24       -12.6566    14.7997   -12.9282 H          1  LIG1   0.0800
     47 H25       -13.0172    13.6725   -11.5986 H          1  LIG1   0.0700
     48 H26       -12.1234    13.1045   -13.0293 H          1  LIG1   0.0800
     49 H27       -14.4586    15.3134   -14.2655 H          1  LIG1   0.1400
     50 H28       -19.6450    15.2715   -19.3227 H          1  LIG1   0.1000
     51 H29       -19.0386    16.3321   -20.6372 H          1  LIG1   0.1100
@<TRIPOS>BOND
     1    1    2 1
     2    1   26 1
     3    1   27 1
     4    1   28 1
     5    2    3 1
     6    2   29 1
     7    2   30 1
     8    3    4 1
     9    4    5 1
    10    4   25 1
    11    4    6 1
    12    6    7 1
    13    6   31 1
    14    6   32 1
    15    7    8 1
    16    7   33 1
    17    7   34 1
    18    8    9 1
    19    8   10 1
    20    8   25 1
    21   10   11 1
    22   10   12 1
    23   10   13 1
    24   12   35 1
    25   12   36 1
    26   12   37 1
    27   13   14 1
    28   13   38 1
    29   13   39 1
    30   14   15 2
    31   14   16 am
    32   16   17 1
    33   16   40 1
    34   17   24 ar
    35   17   18 ar
    36   18   19 ar
    37   18   41 1
    38   19   20 ar
    39   19   42 1
    40   20   21 1
    41   20   22 ar
    42   21   43 1
    43   21   44 1
    44   21   45 1
    45   22   23 1
    46   22   24 ar
    47   23   46 1
    48   23   47 1
    49   23   48 1
    50   24   49 1
    51   25   50 1
    52   25   51 1
##########                 Name:     ZINC000332615244
##########          Protonation:                 none
##########               SMILES:   C[C@@H]1CCC[N@@H+](C(C)(C)CNC(=O)[C@@H](O)CC2=CC=CC=C2)C1
##########            Long Name:   NO_LONG_NAME
##########          FlexRecCode: 1
##########               Number:                  958
##########   Ligand Source File: /nfs/db/export/3D/DE/ADRO/DEADRO.xbqh.db2.gz
##########                 Rank:                    1
##########               Setnum:                  347
##########             Matchnum:                    1
##########                Cloud:                    1
##########        Electrostatic:           -45.757912
##########                 Gist:             0.000000
##########        Van der Waals:           -30.480391
##########  Ligand Polar Desolv:            13.280231
########## Ligand Apolar Desolv:            -4.876526
##########      Internal Energy:             0.000000
##########      Receptor Energy:             0.000000
########## Receptor Desolvation:             0.000000
########## Receptor Hydrophobic:             0.000000
##########         Total Energy:           -67.834602
##########        Ligand Charge:             1.000000
##########            Arbitrary:    +999.9990
##########        Ligand Energy:             0.000000

@<TRIPOS>MOLECULE
 ZINC000332615244      none
   54    55     0     0     0



@<TRIPOS>ATOM
      1 C1        -21.6951    16.0782   -17.2512 C.3        1  LIG1  -0.1700
      2 C2        -21.7843    17.2491   -18.2320 C.3        1  LIG1  -0.1100
      3 H1        -22.4265    18.0249   -17.8151 H          1  LIG1   0.1200
      4 C3        -22.3694    16.7603   -19.5602 C.3        1  LIG1  -0.1300
      5 C4        -21.4209    15.7268   -20.1748 C.3        1  LIG1  -0.1500
      6 C5        -20.0354    16.3531   -20.3471 C.3        1  LIG1  -0.0200
      7 N1        -19.5197    16.7758   -19.0395 N.4        1  LIG1  -0.3800
      8 H2        -19.4992    15.9837   -18.4150 H          1  LIG1   0.4100
      9 C6        -18.1593    17.3065   -19.1996 C.3        1  LIG1   0.0500
     10 C7        -17.2524    16.2188   -19.7790 C.3        1  LIG1  -0.1800
     11 C8        -18.1881    18.5057   -20.1494 C.3        1  LIG1  -0.1800
     12 C9        -17.6203    17.7477   -17.8373 C.3        1  LIG1   0.1000
     13 N2        -17.5927    16.5993   -16.9280 N.am       1  LIG1  -0.7500
     14 C10       -16.6662    16.5353   -15.9512 C.2        1  LIG1   0.4900
     15 O1        -15.8555    17.4284   -15.8251 O.2        1  LIG1  -0.5000
     16 C11       -16.6378    15.3542   -15.0158 C.3        1  LIG1   0.1000
     17 H3        -16.2538    15.6685   -14.0453 H          1  LIG1   0.1300
     18 O2        -17.9611    14.8379   -14.8601 O.3        1  LIG1  -0.5200
     19 C12       -15.7309    14.2665   -15.5952 C.3        1  LIG1  -0.1000
     20 C13       -15.3059    13.3284   -14.4951 C.ar       1  LIG1  -0.0900
     21 C14       -14.1556    13.5861   -13.7730 C.ar       1  LIG1  -0.1200
     22 C15       -13.7656    12.7255   -12.7639 C.ar       1  LIG1  -0.1200
     23 C16       -14.5261    11.6074   -12.4767 C.ar       1  LIG1  -0.1100
     24 C17       -15.6769    11.3503   -13.1982 C.ar       1  LIG1  -0.1100
     25 C18       -16.0691    12.2131   -14.2044 C.ar       1  LIG1  -0.1000
     26 C19       -20.3855    17.8196   -18.4754 C.3        1  LIG1  -0.0100
     27 H4        -21.0529    15.3027   -17.6686 H          1  LIG1   0.0700
     28 H5        -21.2773    16.4265   -16.3067 H          1  LIG1   0.0900
     29 H6        -22.6916    15.6713   -17.0797 H          1  LIG1   0.0500
     30 H7        -23.3425    16.3020   -19.3832 H          1  LIG1   0.1000
     31 H8        -22.4808    17.6034   -20.2417 H          1  LIG1   0.0800
     32 H9        -21.3498    14.8611   -19.5165 H          1  LIG1   0.0900
     33 H10       -21.8029    15.4152   -21.1471 H          1  LIG1   0.1100
     34 H11       -19.3578    15.6201   -20.7846 H          1  LIG1   0.1300
     35 H12       -20.1077    17.2185   -21.0057 H          1  LIG1   0.1300
     36 H13       -16.2431    16.6127   -19.8978 H          1  LIG1   0.0900
     37 H14       -17.2319    15.3645   -19.1024 H          1  LIG1   0.1100
     38 H15       -17.6366    15.9047   -20.7495 H          1  LIG1   0.0900
     39 H16       -17.1786    18.8995   -20.2681 H          1  LIG1   0.0800
     40 H17       -18.5720    18.1915   -21.1199 H          1  LIG1   0.1100
     41 H18       -18.8341    19.2806   -19.7367 H          1  LIG1   0.0900
     42 H19       -16.6108    18.1414   -17.9561 H          1  LIG1   0.1000
     43 H20       -18.2663    18.5224   -17.4246 H          1  LIG1   0.1100
     44 H21       -18.2411    15.8851   -17.0289 H          1  LIG1   0.4000
     45 H22       -18.3661    14.5385   -15.6855 H          1  LIG1   0.3900
     46 H23       -16.2741    13.7091   -16.3584 H          1  LIG1   0.0900
     47 H24       -14.8493    14.7276   -16.0404 H          1  LIG1   0.0800
     48 H25       -13.5615    14.4596   -13.9974 H          1  LIG1   0.1200
     49 H26       -12.8666    12.9265   -12.2002 H          1  LIG1   0.1200
     50 H27       -14.2211    10.9347   -11.6888 H          1  LIG1   0.1300
     51 H28       -16.2708    10.4765   -12.9740 H          1  LIG1   0.1300
     52 H29       -16.9681    12.0121   -14.7681 H          1  LIG1   0.1200
     53 H30       -20.4503    18.6540   -19.1736 H          1  LIG1   0.1300
     54 H31       -19.9658    18.1685   -17.5319 H          1  LIG1   0.1300
@<TRIPOS>BOND
     1    1    2 1
     2    1   27 1
     3    1   28 1
     4    1   29 1
     5    2    3 1
     6    2   26 1
     7    2    4 1
     8    4    5 1
     9    4   30 1
    10    4   31 1
    11    5    6 1
    12    5   32 1
    13    5   33 1
    14    6    7 1
    15    6   34 1
    16    6   35 1
    17    7    8 1
    18    7    9 1
    19    7   26 1
    20    9   10 1
    21    9   11 1
    22    9   12 1
    23   10   36 1
    24   10   37 1
    25   10   38 1
    26   11   39 1
    27   11   40 1
    28   11   41 1
    29   12   13 1
    30   12   42 1
    31   12   43 1
    32   13   14 am
    33   13   44 1
    34   14   15 2
    35   14   16 1
    36   16   17 1
    37   16   18 1
    38   16   19 1
    39   18   45 1
    40   19   20 1
    41   19   46 1
    42   19   47 1
    43   20   25 ar
    44   20   21 ar
    45   21   22 ar
    46   21   48 1
    47   22   23 ar
    48   22   49 1
    49   23   24 ar
    50   23   50 1
    51   24   25 ar
    52   24   51 1
    53   25   52 1
    54   26   53 1
    55   26   54 1
##########                 Name:     ZINC000629994563
##########          Protonation:                 none
##########               SMILES:   COC1=CC=C(CNC(=O)C[N@H+](C)C2CCC2)C(OC)=N1
##########            Long Name:   NO_LONG_NAME
##########          FlexRecCode: 1
##########               Number:                 6092
##########   Ligand Source File: /nfs/db/export/3D/CD/ADRO/CDADRO.xbkd.db2.gz
##########                 Rank:                    1
##########               Setnum:                   80
##########             Matchnum:                    1
##########                Cloud:                    1
##########        Electrostatic:           -49.048565
##########                 Gist:             0.000000
##########        Van der Waals:           -28.991325
##########  Ligand Polar Desolv:            15.617210
########## Ligand Apolar Desolv:            -1.339056
##########      Internal Energy:             0.000000
##########      Receptor Energy:             0.000000
########## Receptor Desolvation:             0.000000
########## Receptor Hydrophobic:             0.000000
##########         Total Energy:           -63.761734
##########        Ligand Charge:             1.000000
##########            Arbitrary:    +999.9990
##########        Ligand Energy:             0.000000

@<TRIPOS>MOLECULE
 ZINC000629994563      none
   45    46     0     0     0



@<TRIPOS>ATOM
      1 C1        -14.4974    10.9573   -12.2417 C.3        1  LIG1   0.0400
      2 O1        -15.3388    10.9426   -13.3967 O.3        1  LIG1  -0.3000
      3 C2        -15.4202    12.0913   -14.1140 C.ar       1  LIG1   0.3800
      4 C3        -16.2259    12.1401   -15.2425 C.ar       1  LIG1  -0.2300
      5 C4        -16.3029    13.3178   -15.9690 C.ar       1  LIG1   0.0200
      6 C5        -15.5677    14.4102   -15.5386 C.ar       1  LIG1  -0.2400
      7 C6        -15.6210    15.7114   -16.2970 C.3        1  LIG1   0.1800
      8 N1        -17.0123    16.0247   -16.6323 N.am       1  LIG1  -0.6900
      9 C7        -17.3041    17.1494   -17.3151 C.2        1  LIG1   0.5000
     10 O2        -16.4149    17.9023   -17.6519 O.2        1  LIG1  -0.5300
     11 C8        -18.7353    17.4717   -17.6600 C.3        1  LIG1  -0.0300
     12 N2        -19.2924    16.3967   -18.4919 N.4        1  LIG1  -0.3600
     13 H1        -19.2567    15.5256   -17.9842 H          1  LIG1   0.4300
     14 C9        -18.5063    16.2761   -19.7271 C.3        1  LIG1  -0.0600
     15 C10       -20.6875    16.7108   -18.8282 C.3        1  LIG1  -0.0100
     16 C11       -21.5240    15.4758   -19.2020 C.3        1  LIG1  -0.1500
     17 C12       -22.6749    16.1117   -18.4044 C.3        1  LIG1  -0.1300
     18 C13       -21.5991    16.8588   -17.5987 C.3        1  LIG1  -0.1500
     19 C14       -14.7816    14.2927   -14.4006 C.ar       1  LIG1   0.3800
     20 O3        -14.0582    15.3573   -13.9718 O.3        1  LIG1  -0.3000
     21 C15       -13.2690    15.1736   -12.7947 C.3        1  LIG1   0.0400
     22 N3        -14.7346    13.1550   -13.7266 N.ar       1  LIG1  -0.5900
     23 H2        -14.5225     9.9790   -11.7614 H          1  LIG1   0.0600
     24 H3        -13.4749    11.1893   -12.5399 H          1  LIG1   0.0600
     25 H4        -14.8528    11.7144   -11.5428 H          1  LIG1   0.1000
     26 H5        -16.7864    11.2702   -15.5517 H          1  LIG1   0.1500
     27 H6        -16.9222    13.3824   -16.8514 H          1  LIG1   0.1500
     28 H7        -15.2075    16.5090   -15.6796 H          1  LIG1   0.0900
     29 H8        -15.0377    15.6220   -17.2136 H          1  LIG1   0.0900
     30 H9        -17.7235    15.4226   -16.3629 H          1  LIG1   0.4100
     31 H10       -19.3185    17.5612   -16.7435 H          1  LIG1   0.1600
     32 H11       -18.7738    18.4128   -18.2086 H          1  LIG1   0.1600
     33 H12       -18.9198    15.4784   -20.3444 H          1  LIG1   0.1400
     34 H13       -18.5447    17.2171   -20.2756 H          1  LIG1   0.1200
     35 H14       -17.4711    16.0429   -19.4776 H          1  LIG1   0.1200
     36 H15       -20.7769    17.5321   -19.5394 H          1  LIG1   0.1600
     37 H16       -21.7266    15.3926   -20.2698 H          1  LIG1   0.1000
     38 H17       -21.1517    14.5483   -18.7673 H          1  LIG1   0.1000
     39 H18       -23.3088    16.7683   -19.0004 H          1  LIG1   0.1000
     40 H19       -23.2442    15.3947   -17.8127 H          1  LIG1   0.1000
     41 H20       -21.2472    16.3093   -16.7256 H          1  LIG1   0.1000
     42 H21       -21.8623    17.8920   -17.3721 H          1  LIG1   0.1000
     43 H22       -12.7425    16.0992   -12.5621 H          1  LIG1   0.0600
     44 H23       -13.9174    14.9050   -11.9608 H          1  LIG1   0.0600
     45 H24       -12.5450    14.3763   -12.9634 H          1  LIG1   0.1000
@<TRIPOS>BOND
     1    1    2 1
     2    1   23 1
     3    1   24 1
     4    1   25 1
     5    2    3 1
     6    3   22 ar
     7    3    4 ar
     8    4    5 ar
     9    4   26 1
    10    5    6 ar
    11    5   27 1
    12    6    7 1
    13    6   19 ar
    14    7    8 1
    15    7   28 1
    16    7   29 1
    17    8    9 am
    18    8   30 1
    19    9   10 2
    20    9   11 1
    21   11   12 1
    22   11   31 1
    23   11   32 1
    24   12   13 1
    25   12   14 1
    26   12   15 1
    27   14   33 1
    28   14   34 1
    29   14   35 1
    30   15   18 1
    31   15   16 1
    32   15   36 1
    33   16   17 1
    34   16   37 1
    35   16   38 1
    36   17   18 1
    37   17   39 1
    38   17   40 1
    39   18   41 1
    40   18   42 1
    41   19   20 1
    42   19   22 ar
    43   20   21 1
    44   21   43 1
    45   21   44 1
    46   21   45 1
##########                 Name:     ZINC000565883300
##########          Protonation:                 none
##########               SMILES:   CC(C)[N@H+]1CC[C@H](CNC2=NC(C(F)(F)F)=C(Br)S2)C1
##########            Long Name:   NO_LONG_NAME
##########          FlexRecCode: 1
##########               Number:                 5011
##########   Ligand Source File: /nfs/db/export/3D/FG/ADMO/FGADMO.xaaq.db2.gz
##########                 Rank:                    1
##########               Setnum:                   31
##########             Matchnum:                    1
##########                Cloud:                    1
##########        Electrostatic:           -48.788170
##########                 Gist:             0.000000
##########        Van der Waals:           -27.538683
##########  Ligand Polar Desolv:            16.954475
########## Ligand Apolar Desolv:            -4.812639
##########      Internal Energy:             0.000000
##########      Receptor Energy:             0.000000
########## Receptor Desolvation:             0.000000
########## Receptor Hydrophobic:             0.000000
##########         Total Energy:           -64.185013
##########        Ligand Charge:             1.000000
##########            Arbitrary:    +999.9990
##########        Ligand Energy:             0.000000

@<TRIPOS>MOLECULE
 ZINC000565883300      none
   38    39     0     0     0



@<TRIPOS>ATOM
      1 C1        -21.3696    15.9007   -19.8662 C.3        1  LIG1  -0.1800
      2 C2        -20.6047    16.8255   -18.9172 C.3        1  LIG1   0.0300
      3 C3        -21.3584    16.9303   -17.5898 C.3        1  LIG1  -0.1800
      4 N1        -19.2627    16.2787   -18.6765 N.4        1  LIG1  -0.3900
      5 H1        -19.3296    15.3615   -18.2613 H          1  LIG1   0.4300
      6 C4        -18.5015    16.2101   -19.9501 C.3        1  LIG1   0.0000
      7 C5        -17.0256    16.1777   -19.4798 C.3        1  LIG1  -0.1500
      8 C6        -17.0283    17.1357   -18.2664 C.3        1  LIG1  -0.1200
      9 H2        -16.6949    18.1288   -18.5677 H          1  LIG1   0.1300
     10 C7        -16.1290    16.5887   -17.1559 C.3        1  LIG1   0.1200
     11 N2        -16.6220    15.2765   -16.7303 N.pl3      1  LIG1  -0.6900
     12 C8        -15.9638    14.5804   -15.7278 C.2        1  LIG1   0.3100
     13 N3        -14.9104    15.0013   -15.1001 N.2        1  LIG1  -0.5100
     14 C9        -14.4117    14.2057   -14.1698 C.2        1  LIG1   0.0700
     15 C10       -13.1922    14.5635   -13.3600 C.3        1  LIG1   0.5400
     16 F1        -12.7204    15.8192   -13.7575 F          1  LIG1  -0.1600
     17 F2        -13.5280    14.6000   -12.0024 F          1  LIG1  -0.1600
     18 F3        -12.1959    13.6037   -13.5683 F          1  LIG1  -0.1600
     19 C11       -15.0758    13.0604   -14.0056 C.2        1  LIG1  -0.2400
     20 Br1       -14.6458    11.6949   -12.7703 Br         1  LIG1   0.0700
     21 S1        -16.4279    13.0455   -15.1349 S.3        1  LIG1   0.2200
     22 C12       -18.4941    17.1831   -17.7939 C.3        1  LIG1   0.0000
     23 H3        -20.8326    15.8260   -20.8119 H          1  LIG1   0.0800
     24 H4        -21.4556    14.9109   -19.4180 H          1  LIG1   0.0800
     25 H5        -22.3654    16.3065   -20.0449 H          1  LIG1   0.1100
     26 H6        -20.5187    17.8154   -19.3654 H          1  LIG1   0.1400
     27 H7        -20.8136    17.5891   -16.9136 H          1  LIG1   0.0800
     28 H8        -22.3541    17.3360   -17.7686 H          1  LIG1   0.0800
     29 H9        -21.4445    15.9403   -17.1418 H          1  LIG1   0.1100
     30 H10       -18.7505    15.3019   -20.4988 H          1  LIG1   0.1400
     31 H11       -18.6916    17.0935   -20.5599 H          1  LIG1   0.1400
     32 H12       -16.7398    15.1708   -19.1755 H          1  LIG1   0.1000
     33 H13       -16.3632    16.5480   -20.2622 H          1  LIG1   0.1200
     34 H14       -15.1097    16.4905   -17.5293 H          1  LIG1   0.0900
     35 H15       -16.1409    17.2738   -16.3082 H          1  LIG1   0.0800
     36 H16       -17.4088    14.8946   -17.1497 H          1  LIG1   0.4200
     37 H17       -18.8792    18.1993   -17.8792 H          1  LIG1   0.1400
     38 H18       -18.5625    16.8429   -16.7606 H          1  LIG1   0.1400
@<TRIPOS>BOND
     1    1    2 1
     2    1   23 1
     3    1   24 1
     4    1   25 1
     5    2    3 1
     6    2    4 1
     7    2   26 1
     8    3   27 1
     9    3   28 1
    10    3   29 1
    11    4    5 1
    12    4   22 1
    13    4    6 1
    14    6    7 1
    15    6   30 1
    16    6   31 1
    17    7    8 1
    18    7   32 1
    19    7   33 1
    20    8    9 1
    21    8   10 1
    22    8   22 1
    23   10   11 1
    24   10   34 1
    25   10   35 1
    26   11   12 1
    27   11   36 1
    28   12   21 1
    29   12   13 2
    30   13   14 1
    31   14   15 1
    32   14   19 2
    33   15   16 1
    34   15   17 1
    35   15   18 1
    36   19   20 1
    37   19   21 1
    38   22   37 1
    39   22   38 1
##########                 Name:     ZINC000421039533
##########          Protonation:                 none
##########               SMILES:   CC1=CC=C(NC(=O)[C@H](C)[N@H+]2CCC[C@H](CCO)CC2)C=C1C
##########            Long Name:   NO_LONG_NAME
##########          FlexRecCode: 1
##########               Number:                  662
##########   Ligand Source File: /nfs/db/export/3D/DG/ADMO/DGADMO.xash.db2.gz
##########                 Rank:                    1
##########               Setnum:                  408
##########             Matchnum:                    1
##########                Cloud:                    1
##########        Electrostatic:           -46.411926
##########                 Gist:             0.000000
##########        Van der Waals:           -31.762655
##########  Ligand Polar Desolv:            14.902838
########## Ligand Apolar Desolv:            -4.039701
##########      Internal Energy:             0.000000
##########      Receptor Energy:             0.000000
########## Receptor Desolvation:             0.000000
########## Receptor Hydrophobic:             0.000000
##########         Total Energy:           -67.311447
##########        Ligand Charge:             1.000000
##########            Arbitrary:    +999.9990
##########        Ligand Energy:             0.000000

@<TRIPOS>MOLECULE
 ZINC000421039533      none
   54    55     0     0     0



@<TRIPOS>ATOM
      1 C1        -13.3264    14.8366   -12.2443 C.3        1  LIG1  -0.1300
      2 C2        -14.1829    14.8726   -13.4836 C.ar       1  LIG1  -0.0800
      3 C3        -14.2656    16.0325   -14.2316 C.ar       1  LIG1  -0.1000
      4 C4        -15.0497    16.0688   -15.3683 C.ar       1  LIG1  -0.1100
      5 C5        -15.7552    14.9386   -15.7594 C.ar       1  LIG1   0.1100
      6 N1        -16.5501    14.9718   -16.9105 N.am       1  LIG1  -0.6400
      7 C6        -16.2159    15.7785   -17.9372 C.2        1  LIG1   0.5000
      8 O1        -15.2262    16.4757   -17.8633 O.2        1  LIG1  -0.5100
      9 C7        -17.0721    15.8143   -19.1769 C.3        1  LIG1   0.0100
     10 H1        -17.1067    14.8207   -19.6234 H          1  LIG1   0.1700
     11 C8        -16.4757    16.8038   -20.1800 C.3        1  LIG1  -0.1800
     12 N2        -18.4325    16.2387   -18.8203 N.4        1  LIG1  -0.3600
     13 H2        -18.8309    15.5894   -18.1585 H          1  LIG1   0.4300
     14 C9        -18.3977    17.5641   -18.2458 C.3        1  LIG1  -0.0200
     15 C10       -19.4287    17.7088   -17.1131 C.3        1  LIG1  -0.1400
     16 C11       -20.7741    17.0341   -17.4445 C.3        1  LIG1  -0.1500
     17 C12       -21.2283    17.2744   -18.8604 C.3        1  LIG1  -0.0900
     18 H3        -20.8385    18.2302   -19.2106 H          1  LIG1   0.0900
     19 C13       -22.7572    17.2969   -18.9100 C.3        1  LIG1  -0.1200
     20 C14       -23.2173    17.5411   -20.3486 C.3        1  LIG1   0.0700
     21 O2        -22.7074    18.7954   -20.8055 O.3        1  LIG1  -0.5700
     22 C15       -20.6972    16.1366   -19.7655 C.3        1  LIG1  -0.1500
     23 C16       -19.2711    16.2966   -20.0302 C.3        1  LIG1   0.0000
     24 C17       -15.6697    13.7749   -15.0061 C.ar       1  LIG1  -0.1300
     25 C18       -14.8802    13.7437   -13.8736 C.ar       1  LIG1  -0.0600
     26 C19       -14.7864    12.4813   -13.0559 C.3        1  LIG1  -0.1200
     27 H4        -12.8583    15.8101   -12.0977 H          1  LIG1   0.0800
     28 H5        -13.9471    14.5981   -11.3805 H          1  LIG1   0.0700
     29 H6        -12.5544    14.0757   -12.3582 H          1  LIG1   0.0800
     30 H7        -13.7166    16.9112   -13.9268 H          1  LIG1   0.1300
     31 H8        -15.1145    16.9752   -15.9517 H          1  LIG1   0.1400
     32 H9        -17.3417    14.4143   -16.9695 H          1  LIG1   0.4200
     33 H10       -17.0948    16.8297   -21.0767 H          1  LIG1   0.1100
     34 H11       -16.4410    17.7974   -19.7335 H          1  LIG1   0.1000
     35 H12       -15.4662    16.4890   -20.4445 H          1  LIG1   0.0900
     36 H13       -17.4010    17.7547   -17.8480 H          1  LIG1   0.1300
     37 H14       -18.6166    18.2960   -19.0235 H          1  LIG1   0.1300
     38 H15       -19.0222    17.2581   -16.2077 H          1  LIG1   0.1000
     39 H16       -19.6023    18.7689   -16.9287 H          1  LIG1   0.1000
     40 H17       -20.6753    15.9602   -17.2862 H          1  LIG1   0.0700
     41 H18       -21.5344    17.4167   -16.7635 H          1  LIG1   0.1000
     42 H19       -23.1463    16.3402   -18.5615 H          1  LIG1   0.0800
     43 H20       -23.1299    18.0959   -18.2689 H          1  LIG1   0.0800
     44 H21       -22.8449    16.7422   -20.9898 H          1  LIG1   0.0500
     45 H22       -24.3067    17.5572   -20.3838 H          1  LIG1   0.0500
     46 H23       -21.7422    18.8528   -20.8010 H          1  LIG1   0.3900
     47 H24       -20.8630    15.1795   -19.2711 H          1  LIG1   0.0900
     48 H25       -21.2401    16.1485   -20.7106 H          1  LIG1   0.1200
     49 H26       -19.1129    17.2595   -20.5158 H          1  LIG1   0.1300
     50 H27       -18.9533    15.5091   -20.7136 H          1  LIG1   0.1300
     51 H28       -16.2175    12.8942   -15.3076 H          1  LIG1   0.1300
     52 H29       -15.3987    11.7049   -13.5147 H          1  LIG1   0.0800
     53 H30       -13.7487    12.1500   -13.0167 H          1  LIG1   0.0800
     54 H31       -15.1441    12.6760   -12.0448 H          1  LIG1   0.0700
@<TRIPOS>BOND
     1    1    2 1
     2    1   27 1
     3    1   28 1
     4    1   29 1
     5    2   25 ar
     6    2    3 ar
     7    3    4 ar
     8    3   30 1
     9    4    5 ar
    10    4   31 1
    11    5    6 1
    12    5   24 ar
    13    6    7 am
    14    6   32 1
    15    7    8 2
    16    7    9 1
    17    9   10 1
    18    9   11 1
    19    9   12 1
    20   11   33 1
    21   11   34 1
    22   11   35 1
    23   12   13 1
    24   12   23 1
    25   12   14 1
    26   14   15 1
    27   14   36 1
    28   14   37 1
    29   15   16 1
    30   15   38 1
    31   15   39 1
    32   16   17 1
    33   16   40 1
    34   16   41 1
    35   17   18 1
    36   17   19 1
    37   17   22 1
    38   19   20 1
    39   19   42 1
    40   19   43 1
    41   20   21 1
    42   20   44 1
    43   20   45 1
    44   21   46 1
    45   22   23 1
    46   22   47 1
    47   22   48 1
    48   23   49 1
    49   23   50 1
    50   24   25 ar
    51   24   51 1
    52   25   26 1
    53   26   52 1
    54   26   53 1
    55   26   54 1
##########                 Name:     ZINC000270628406
##########          Protonation:                 none
##########               SMILES:   CC1=C(C)C2=C(NC(C[N@H+]3CCC4(C3)CCOCC4)=NC2=O)S1
##########            Long Name:   NO_LONG_NAME
##########          FlexRecCode: 1
##########               Number:                12100
##########   Ligand Source File: /nfs/db/export/3D/EG/ADMO/EGADMO.xaaa.db2.gz
##########                 Rank:                    1
##########               Setnum:                   13
##########             Matchnum:                    1
##########                Cloud:                    1
##########        Electrostatic:           -53.894405
##########                 Gist:             0.000000
##########        Van der Waals:           -27.950165
##########  Ligand Polar Desolv:            21.557491
########## Ligand Apolar Desolv:            -4.503576
##########      Internal Energy:             0.000000
##########      Receptor Energy:             0.000000
########## Receptor Desolvation:             0.000000
########## Receptor Hydrophobic:             0.000000
##########         Total Energy:           -64.790657
##########        Ligand Charge:             1.000000
##########            Arbitrary:    +999.9990
##########        Ligand Energy:             0.000000

@<TRIPOS>MOLECULE
 ZINC000270628406      none
   47    50     0     0     0



@<TRIPOS>ATOM
      1 C1        -13.6285    14.0816   -13.0209 C.3        1  LIG1  -0.0900
      2 C2        -14.4402    14.7461   -14.1030 C.2        1  LIG1  -0.1800
      3 C3        -14.3065    16.0077   -14.4681 C.2        1  LIG1  -0.0400
      4 C4        -13.3076    16.9370   -13.8281 C.3        1  LIG1  -0.1000
      5 C5        -15.1948    16.4290   -15.5326 C.2        1  LIG1  -0.2000
      6 C6        -16.0221    15.4037   -15.9619 C.2        1  LIG1   0.0300
      7 N1        -16.9240    15.6556   -16.9727 N.pl3      1  LIG1  -0.5700
      8 C7        -17.0080    16.8694   -17.5393 C.2        1  LIG1   0.4100
      9 C8        -18.0132    17.0854   -18.6411 C.3        1  LIG1   0.0500
     10 N2        -19.2980    16.4861   -18.2562 N.4        1  LIG1  -0.3800
     11 H1        -19.1872    15.4955   -18.0996 H          1  LIG1   0.4400
     12 C9        -19.8228    17.1428   -17.0310 C.3        1  LIG1  -0.0100
     13 C10       -21.3430    16.8436   -17.0898 C.3        1  LIG1  -0.1300
     14 C11       -21.6526    16.9421   -18.5963 C.3        1  LIG1  -0.0700
     15 C12       -20.3094    16.7265   -19.3100 C.3        1  LIG1  -0.0100
     16 C13       -22.6459    15.8555   -18.9985 C.3        1  LIG1  -0.1500
     17 C14       -22.9915    16.0131   -20.4826 C.3        1  LIG1   0.0500
     18 O1        -23.5020    17.3280   -20.7126 O.3        1  LIG1  -0.3700
     19 C15       -22.5779    18.3762   -20.4131 C.3        1  LIG1   0.0500
     20 C16       -22.2140    18.3223   -18.9259 C.3        1  LIG1  -0.1500
     21 N3        -16.2548    17.8693   -17.1742 N.2        1  LIG1  -0.6000
     22 C17       -15.3407    17.7386   -16.1991 C.2        1  LIG1   0.5500
     23 O2        -14.6439    18.6849   -15.8692 O.2        1  LIG1  -0.4600
     24 S1        -15.6807    13.9427   -15.0473 S.3        1  LIG1   0.2100
     25 H2        -12.9311    14.8029   -12.5951 H          1  LIG1   0.0700
     26 H3        -14.2949    13.7158   -12.2397 H          1  LIG1   0.0900
     27 H4        -13.0726    13.2454   -13.4452 H          1  LIG1   0.0900
     28 H5        -13.3791    17.9216   -14.2905 H          1  LIG1   0.0800
     29 H6        -13.5196    17.0200   -12.7622 H          1  LIG1   0.0800
     30 H7        -12.3015    16.5417   -13.9688 H          1  LIG1   0.0800
     31 H8        -17.5074    14.9442   -17.2801 H          1  LIG1   0.4300
     32 H9        -18.1462    18.1544   -18.8072 H          1  LIG1   0.1700
     33 H10       -17.6540    16.6173   -19.5576 H          1  LIG1   0.1700
     34 H11       -19.3785    16.7024   -16.1384 H          1  LIG1   0.1500
     35 H12       -19.6408    18.2170   -17.0624 H          1  LIG1   0.1300
     36 H13       -21.5541    15.8413   -16.7169 H          1  LIG1   0.1000
     37 H14       -21.9055    17.5911   -16.5304 H          1  LIG1   0.1200
     38 H15       -20.0452    17.6154   -19.8828 H          1  LIG1   0.1400
     39 H16       -20.3734    15.8623   -19.9712 H          1  LIG1   0.1400
     40 H17       -22.2007    14.8748   -18.8305 H          1  LIG1   0.0900
     41 H18       -23.5526    15.9518   -18.4012 H          1  LIG1   0.1000
     42 H19       -22.0946    15.8610   -21.0830 H          1  LIG1   0.0500
     43 H20       -23.7452    15.2765   -20.7608 H          1  LIG1   0.1100
     44 H21       -21.6768    18.2490   -21.0129 H          1  LIG1   0.0500
     45 H22       -23.0342    19.3395   -20.6413 H          1  LIG1   0.1100
     46 H23       -23.1055    18.5056   -18.3261 H          1  LIG1   0.1000
     47 H24       -21.4641    19.0824   -18.7067 H          1  LIG1   0.0800
@<TRIPOS>BOND
     1    1    2 1
     2    1   25 1
     3    1   26 1
     4    1   27 1
     5    2   24 1
     6    2    3 2
     7    3    4 1
     8    3    5 1
     9    4   28 1
    10    4   29 1
    11    4   30 1
    12    5   22 1
    13    5    6 2
    14    6    7 1
    15    6   24 1
    16    7    8 1
    17    7   31 1
    18    8    9 1
    19    8   21 2
    20    9   10 1
    21    9   32 1
    22    9   33 1
    23   10   11 1
    24   10   15 1
    25   10   12 1
    26   12   13 1
    27   12   34 1
    28   12   35 1
    29   13   14 1
    30   13   36 1
    31   13   37 1
    32   14   20 1
    33   14   15 1
    34   14   16 1
    35   15   38 1
    36   15   39 1
    37   16   17 1
    38   16   40 1
    39   16   41 1
    40   17   18 1
    41   17   42 1
    42   17   43 1
    43   18   19 1
    44   19   20 1
    45   19   44 1
    46   19   45 1
    47   20   46 1
    48   20   47 1
    49   21   22 1
    50   22   23 2
##########                 Name:     ZINC000609540377
##########          Protonation:                 none
##########               SMILES:   C[C@H](C(=O)NC1=CC=CC([N+](=O)[O-])=C1)[N@H+]1CC[C@@H](C2=CC=CO2)C1
##########            Long Name:   NO_LONG_NAME
##########          FlexRecCode: 1
##########               Number:                 2758
##########   Ligand Source File: /nfs/db/export/3D/EG/BDMO/EGBDMO.xbe.db2.gz
##########                 Rank:                    1
##########               Setnum:                   45
##########             Matchnum:                    1
##########                Cloud:                    1
##########        Electrostatic:           -49.853630
##########                 Gist:             0.000000
##########        Van der Waals:           -33.405933
##########  Ligand Polar Desolv:            21.229004
########## Ligand Apolar Desolv:            -5.671988
##########      Internal Energy:             0.000000
##########      Receptor Energy:             0.000000
########## Receptor Desolvation:             0.000000
########## Receptor Hydrophobic:             0.000000
##########         Total Energy:           -67.702553
##########        Ligand Charge:             1.000000
##########            Arbitrary:    +999.9990
##########        Ligand Energy:             0.000000

@<TRIPOS>MOLECULE
 ZINC000609540377      none
   44    46     0     0     0



@<TRIPOS>ATOM
      1 C1        -16.2958    15.8984   -19.5495 C.3        1  LIG1  -0.1800
      2 C2        -16.8558    16.6338   -18.3302 C.3        1  LIG1   0.0100
      3 H1        -16.6847    17.7047   -18.4417 H          1  LIG1   0.1700
      4 C3        -16.1640    16.1416   -17.0851 C.2        1  LIG1   0.5100
      5 O1        -15.5404    16.9165   -16.3912 O.2        1  LIG1  -0.5000
      6 N1        -16.2384    14.8401   -16.7428 N.am       1  LIG1  -0.6400
      7 C4        -15.5961    14.3831   -15.5867 C.ar       1  LIG1   0.1200
      8 C5        -16.1116    13.3008   -14.8862 C.ar       1  LIG1  -0.0800
      9 C6        -15.4753    12.8521   -13.7452 C.ar       1  LIG1  -0.0900
     10 C7        -14.3264    13.4795   -13.3004 C.ar       1  LIG1  -0.0500
     11 C8        -13.8106    14.5581   -13.9958 C.ar       1  LIG1  -0.0200
     12 N2        -12.5808    15.2273   -13.5159 N.pl3      1  LIG1   0.0200
     13 O2        -12.0235    14.8281   -12.5091 O.2        1  LIG1  -0.1400
     14 O3        -12.1259    16.1772   -14.1278 O.2        1  LIG1  -0.1500
     15 C9        -14.4384    15.0074   -15.1407 C.ar       1  LIG1  -0.0600
     16 N3        -18.2981    16.3770   -18.2232 N.4        1  LIG1  -0.3800
     17 H2        -18.4690    15.3880   -18.1195 H          1  LIG1   0.4300
     18 C10       -18.8636    17.1155   -17.0732 C.3        1  LIG1  -0.0100
     19 C11       -20.2778    17.5699   -17.4795 C.3        1  LIG1  -0.1400
     20 C12       -20.4602    17.0721   -18.9317 C.3        1  LIG1  -0.0100
     21 H3        -20.9903    16.1198   -18.9493 H          1  LIG1   0.1300
     22 C13       -21.1865    18.1000   -19.7604 C.2        1  LIG1  -0.0500
     23 C14       -22.5198    18.1841   -19.9181 C.2        1  LIG1  -0.1700
     24 C15       -22.7629    19.2864   -20.7692 C.2        1  LIG1  -0.2100
     25 C16       -21.5637    19.8102   -21.0808 C.2        1  LIG1  -0.0100
     26 O4        -20.6130    19.0910   -20.4622 O.3        1  LIG1  -0.1800
     27 C17       -19.0013    16.8952   -19.4244 C.3        1  LIG1   0.0000
     28 H4        -16.4669    14.8276   -19.4382 H          1  LIG1   0.1000
     29 H5        -16.7961    16.2546   -20.4501 H          1  LIG1   0.1100
     30 H6        -15.2256    16.0891   -19.6289 H          1  LIG1   0.0900
     31 H7        -16.7372    14.2203   -17.2978 H          1  LIG1   0.4300
     32 H8        -17.0095    12.8106   -15.2326 H          1  LIG1   0.1500
     33 H9        -15.8758    12.0103   -13.1998 H          1  LIG1   0.1600
     34 H10       -13.8309    13.1270   -12.4079 H          1  LIG1   0.1600
     35 H11       -14.0349    15.8494   -15.6835 H          1  LIG1   0.1700
     36 H12       -18.9195    16.4614   -16.2030 H          1  LIG1   0.1500
     37 H13       -18.2446    17.9841   -16.8489 H          1  LIG1   0.1300
     38 H14       -21.0233    17.1150   -16.8272 H          1  LIG1   0.1100
     39 H15       -20.3519    18.6566   -17.4398 H          1  LIG1   0.1100
     40 H16       -23.2621    17.5337   -19.4793 H          1  LIG1   0.1500
     41 H17       -23.7265    19.6400   -21.1052 H          1  LIG1   0.1600
     42 H18       -21.3945    20.6664   -21.7169 H          1  LIG1   0.2100
     43 H19       -18.5804    17.8525   -19.7322 H          1  LIG1   0.1400
     44 H20       -18.9556    16.1737   -20.2401 H          1  LIG1   0.1500
@<TRIPOS>BOND
     1    1    2 1
     2    1   28 1
     3    1   29 1
     4    1   30 1
     5    2    3 1
     6    2    4 1
     7    2   16 1
     8    4    5 2
     9    4    6 am
    10    6    7 1
    11    6   31 1
    12    7   15 ar
    13    7    8 ar
    14    8    9 ar
    15    8   32 1
    16    9   10 ar
    17    9   33 1
    18   10   11 ar
    19   10   34 1
    20   11   12 1
    21   11   15 ar
    22   12   13 2
    23   12   14 2
    24   15   35 1
    25   16   17 1
    26   16   27 1
    27   16   18 1
    28   18   19 1
    29   18   36 1
    30   18   37 1
    31   19   20 1
    32   19   38 1
    33   19   39 1
    34   20   21 1
    35   20   22 1
    36   20   27 1
    37   22   26 1
    38   22   23 2
    39   23   24 1
    40   23   40 1
    41   24   25 2
    42   24   41 1
    43   25   26 1
    44   25   42 1
    45   27   43 1
    46   27   44 1
##########                 Name:     ZINC000357551804
##########          Protonation:                 none
##########               SMILES:   CC[C@H]1CC[C@H](C)[N@@H+]1CC(=O)NCCC1=C2N=CC=CC2=CC=C1
##########            Long Name:   NO_LONG_NAME
##########          FlexRecCode: 1
##########               Number:                 6185
##########   Ligand Source File: /nfs/db/export/3D/EG/ADRO/EGADRO.xcal.db2.gz
##########                 Rank:                    1
##########               Setnum:                   20
##########             Matchnum:                    1
##########                Cloud:                    1
##########        Electrostatic:           -42.236134
##########                 Gist:             0.000000
##########        Van der Waals:           -34.013248
##########  Ligand Polar Desolv:            15.278645
########## Ligand Apolar Desolv:            -5.247852
##########      Internal Energy:             0.000000
##########      Receptor Energy:             0.000000
########## Receptor Desolvation:             0.000000
########## Receptor Hydrophobic:             0.000000
##########         Total Energy:           -66.218590
##########        Ligand Charge:             1.000000
##########            Arbitrary:    +999.9990
##########        Ligand Energy:             0.000000

@<TRIPOS>MOLECULE
 ZINC000357551804      none
   52    54     0     0     0



@<TRIPOS>ATOM
      1 C1        -17.2934    17.9690   -20.8763 C.3        1  LIG1  -0.1800
      2 C2        -17.7313    17.0901   -19.7030 C.3        1  LIG1  -0.1400
      3 C3        -19.2038    17.3586   -19.3862 C.3        1  LIG1   0.0200
      4 H1        -19.3491    18.4056   -19.1199 H          1  LIG1   0.1400
      5 C4        -20.0933    16.9819   -20.5974 C.3        1  LIG1  -0.1400
      6 C5        -21.4590    16.7142   -19.9117 C.3        1  LIG1  -0.1400
      7 C6        -21.0536    16.0711   -18.5687 C.3        1  LIG1   0.0300
      8 H2        -21.1141    14.9855   -18.6441 H          1  LIG1   0.1400
      9 C7        -21.9770    16.5675   -17.4543 C.3        1  LIG1  -0.1900
     10 N1        -19.6630    16.4799   -18.2896 N.4        1  LIG1  -0.3700
     11 H3        -19.0723    15.6633   -18.2406 H          1  LIG1   0.4300
     12 C8        -19.6082    17.2083   -17.0150 C.3        1  LIG1  -0.0500
     13 C9        -18.1907    17.6436   -16.7458 C.2        1  LIG1   0.5100
     14 O1        -17.8010    18.7204   -17.1450 O.2        1  LIG1  -0.5300
     15 N2        -17.3563    16.8362   -16.0615 N.am       1  LIG1  -0.7000
     16 C10       -15.9784    17.2593   -15.7999 C.3        1  LIG1   0.1200
     17 C11       -15.0089    16.2580   -16.4310 C.3        1  LIG1  -0.0800
     18 C12       -15.2373    14.8932   -15.8342 C.ar       1  LIG1  -0.0700
     19 C13       -14.5324    14.4996   -14.6835 C.ar       1  LIG1   0.1300
     20 N3        -13.6527    15.3191   -14.0991 N.ar       1  LIG1  -0.4800
     21 C14       -12.9931    14.9572   -13.0257 C.ar       1  LIG1   0.1400
     22 C15       -13.1740    13.7053   -12.4412 C.ar       1  LIG1  -0.1700
     23 C16       -14.0581    12.8193   -12.9877 C.ar       1  LIG1  -0.0500
     24 C17       -14.7647    13.2114   -14.1405 C.ar       1  LIG1  -0.1000
     25 C18       -15.6893    12.3544   -14.7582 C.ar       1  LIG1  -0.0900
     26 C19       -16.3524    12.7706   -15.8722 C.ar       1  LIG1  -0.1200
     27 C20       -16.1309    14.0392   -16.4039 C.ar       1  LIG1  -0.0900
     28 H4        -16.2443    17.7776   -21.1019 H          1  LIG1   0.0500
     29 H5        -17.9012    17.7370   -21.7508 H          1  LIG1   0.0800
     30 H6        -17.4226    19.0186   -20.6120 H          1  LIG1   0.0700
     31 H7        -17.6019    16.0405   -19.9672 H          1  LIG1   0.1200
     32 H8        -17.1233    17.3221   -18.8285 H          1  LIG1   0.0900
     33 H9        -20.1657    17.8109   -21.3014 H          1  LIG1   0.1200
     34 H10       -19.7213    16.0840   -21.0906 H          1  LIG1   0.1000
     35 H11       -21.9964    17.6478   -19.7454 H          1  LIG1   0.1000
     36 H12       -22.0587    16.0232   -20.5042 H          1  LIG1   0.1100
     37 H13       -21.6848    16.1094   -16.5094 H          1  LIG1   0.1100
     38 H14       -21.8974    17.6516   -17.3724 H          1  LIG1   0.0900
     39 H15       -23.0064    16.2953   -17.6871 H          1  LIG1   0.0800
     40 H16       -20.2534    18.0852   -17.0696 H          1  LIG1   0.1600
     41 H17       -19.9475    16.5571   -16.2096 H          1  LIG1   0.1600
     42 H18       -17.6681    15.9749   -15.7423 H          1  LIG1   0.4100
     43 H19       -15.8133    18.2465   -16.2313 H          1  LIG1   0.0800
     44 H20       -15.8090    17.3002   -14.7238 H          1  LIG1   0.0800
     45 H21       -15.1783    16.2171   -17.5070 H          1  LIG1   0.0900
     46 H22       -13.9837    16.5728   -16.2362 H          1  LIG1   0.0800
     47 H23       -12.2904    15.6474   -12.5828 H          1  LIG1   0.1600
     48 H24       -12.6155    13.4359   -11.5571 H          1  LIG1   0.1400
     49 H25       -14.2105    11.8446   -12.5480 H          1  LIG1   0.1400
     50 H26       -15.8732    11.3706   -14.3523 H          1  LIG1   0.1300
     51 H27       -17.0635    12.1107   -16.3468 H          1  LIG1   0.1300
     52 H28       -16.6696    14.3462   -17.2881 H          1  LIG1   0.1300
@<TRIPOS>BOND
     1    1    2 1
     2    1   28 1
     3    1   29 1
     4    1   30 1
     5    2    3 1
     6    2   31 1
     7    2   32 1
     8    3    4 1
     9    3   10 1
    10    3    5 1
    11    5    6 1
    12    5   33 1
    13    5   34 1
    14    6    7 1
    15    6   35 1
    16    6   36 1
    17    7    8 1
    18    7    9 1
    19    7   10 1
    20    9   37 1
    21    9   38 1
    22    9   39 1
    23   10   11 1
    24   10   12 1
    25   12   13 1
    26   12   40 1
    27   12   41 1
    28   13   14 2
    29   13   15 am
    30   15   16 1
    31   15   42 1
    32   16   17 1
    33   16   43 1
    34   16   44 1
    35   17   18 1
    36   17   45 1
    37   17   46 1
    38   18   27 ar
    39   18   19 ar
    40   19   24 ar
    41   19   20 ar
    42   20   21 ar
    43   21   22 ar
    44   21   47 1
    45   22   23 ar
    46   22   48 1
    47   23   24 ar
    48   23   49 1
    49   24   25 ar
    50   25   26 ar
    51   25   50 1
    52   26   27 ar
    53   26   51 1
    54   27   52 1
##########                 Name:     ZINC000340892636
##########          Protonation:                 none
##########               SMILES:   C1=CN(C2=CC=CC=C2)C(CNC2=[NH+]C3=CC=CC=C3N2)=N1
##########            Long Name:   NO_LONG_NAME
##########          FlexRecCode: 1
##########               Number:                 6787
##########   Ligand Source File: /nfs/db/export/3D/CF/ADMO/CFADMO.xayv.db2.gz
##########                 Rank:                    1
##########               Setnum:                  180
##########             Matchnum:                    1
##########                Cloud:                    1
##########        Electrostatic:           -36.381149
##########                 Gist:             0.000000
##########        Van der Waals:           -29.686750
##########  Ligand Polar Desolv:            11.839190
########## Ligand Apolar Desolv:            -6.756994
##########      Internal Energy:             0.000000
##########      Receptor Energy:             0.000000
########## Receptor Desolvation:             0.000000
########## Receptor Hydrophobic:             0.000000
##########         Total Energy:           -60.985706
##########        Ligand Charge:             1.000000
##########            Arbitrary:    +999.9990
##########        Ligand Energy:             0.000000

@<TRIPOS>MOLECULE
 ZINC000340892636      none
   38    41     0     0     0



@<TRIPOS>ATOM
      1 C1        -16.7395    18.6903   -21.8699 C.2        1  LIG1  -0.0200
      2 C2        -18.0762    18.7309   -22.0279 C.2        1  LIG1  -0.0100
      3 N1        -18.6202    18.0118   -20.9950 N.pl3      1  LIG1  -0.4000
      4 C3        -19.9850    17.7888   -20.7625 C.ar       1  LIG1   0.1000
      5 C4        -20.4825    16.4932   -20.7312 C.ar       1  LIG1  -0.1200
      6 C5        -21.8272    16.2766   -20.5016 C.ar       1  LIG1  -0.1000
      7 C6        -22.6776    17.3487   -20.3034 C.ar       1  LIG1  -0.1000
      8 C7        -22.1849    18.6403   -20.3341 C.ar       1  LIG1  -0.0900
      9 C8        -20.8403    18.8629   -20.5575 C.ar       1  LIG1  -0.1100
     10 C9        -17.5873    17.5560   -20.2397 C.2        1  LIG1   0.1500
     11 C10       -17.7116    16.7156   -18.9950 C.3        1  LIG1   0.2000
     12 N2        -16.8189    17.2417   -17.9594 N.pl3      1  LIG1  -0.6800
     13 C11       -16.2762    16.3932   -17.0237 C.cat      1  LIG1   0.6500
     14 N3        -15.1974    16.6572   -16.2899 N.pl3      1  LIG1  -0.5500
     15 H1        -14.6712    17.4713   -16.3275 H          1  LIG1   0.4600
     16 C12       -14.9559    15.5844   -15.4724 C.ar       1  LIG1   0.0700
     17 C13       -13.9867    15.3028   -14.5144 C.ar       1  LIG1  -0.0800
     18 C14       -14.0158    14.0988   -13.8438 C.ar       1  LIG1  -0.0800
     19 C15       -15.0040    13.1651   -14.1174 C.ar       1  LIG1  -0.0800
     20 C16       -15.9712    13.4280   -15.0638 C.ar       1  LIG1  -0.0800
     21 C17       -15.9572    14.6388   -15.7492 C.ar       1  LIG1   0.0700
     22 N4        -16.7564    15.1904   -16.7159 N.pl3      1  LIG1  -0.5500
     23 N5        -16.4694    17.9678   -20.7725 N.2        1  LIG1  -0.4400
     24 H2        -16.0108    19.1551   -22.5175 H          1  LIG1   0.1900
     25 H3        -18.6160    19.2336   -22.8167 H          1  LIG1   0.1900
     26 H4        -19.8189    15.6555   -20.8867 H          1  LIG1   0.1200
     27 H5        -22.2148    15.2688   -20.4770 H          1  LIG1   0.1300
     28 H6        -23.7288    17.1769   -20.1247 H          1  LIG1   0.1400
     29 H7        -22.8517    19.4758   -20.1794 H          1  LIG1   0.1400
     30 H8        -20.4559    19.8719   -20.5815 H          1  LIG1   0.1400
     31 H9        -18.7408    16.7459   -18.6374 H          1  LIG1   0.1200
     32 H10       -17.4365    15.6857   -19.2229 H          1  LIG1   0.1000
     33 H11       -16.6108    18.1888   -17.9339 H          1  LIG1   0.4400
     34 H12       -13.2140    16.0253   -14.2971 H          1  LIG1   0.1500
     35 H13       -13.2632    13.8808   -13.1004 H          1  LIG1   0.1600
     36 H14       -15.0157    12.2253   -13.5856 H          1  LIG1   0.1500
     37 H15       -16.7376    12.6962   -15.2726 H          1  LIG1   0.1500
     38 H16       -17.5383    14.7738   -17.1109 H          1  LIG1   0.4600
@<TRIPOS>BOND
     1    1   23 1
     2    1    2 2
     3    1   24 1
     4    2    3 1
     5    2   25 1
     6    3    4 1
     7    3   10 1
     8    4    9 ar
     9    4    5 ar
    10    5    6 ar
    11    5   26 1
    12    6    7 ar
    13    6   27 1
    14    7    8 ar
    15    7   28 1
    16    8    9 ar
    17    8   29 1
    18    9   30 1
    19   10   11 1
    20   10   23 2
    21   11   12 1
    22   11   31 1
    23   11   32 1
    24   12   13 1
    25   12   33 1
    26   13   22 1
    27   13   14 1
    28   14   15 1
    29   14   16 1
    30   16   21 ar
    31   16   17 ar
    32   17   18 ar
    33   17   34 1
    34   18   19 ar
    35   18   35 1
    36   19   20 ar
    37   19   36 1
    38   20   21 ar
    39   20   37 1
    40   21   22 1
    41   22   38 1
##########                 Name:     ZINC000672709877
##########          Protonation:                 none
##########               SMILES:   C[NH+](C)C[C@H](NC(=O)NCCCN1C=NC=N1)C1=CC=C(F)C=C1
##########            Long Name:   NO_LONG_NAME
##########          FlexRecCode: 1
##########               Number:                 4225
##########   Ligand Source File: /nfs/db/export/3D/ED/ADRO/EDADRO.xdkx.db2.gz
##########                 Rank:                    1
##########               Setnum:                  183
##########             Matchnum:                    1
##########                Cloud:                    1
##########        Electrostatic:           -38.973557
##########                 Gist:             0.000000
##########        Van der Waals:           -31.332464
##########  Ligand Polar Desolv:            13.554005
########## Ligand Apolar Desolv:            -4.243419
##########      Internal Energy:             0.000000
##########      Receptor Energy:             0.000000
########## Receptor Desolvation:             0.000000
########## Receptor Hydrophobic:             0.000000
##########         Total Energy:           -60.995438
##########        Ligand Charge:             1.000000
##########            Arbitrary:    +999.9990
##########        Ligand Energy:             0.000000

@<TRIPOS>MOLECULE
 ZINC000672709877      none
   48    49     0     0     0



@<TRIPOS>ATOM
      1 C1        -16.8817    15.1637   -19.0121 C.3        1  LIG1  -0.0500
      2 N1        -17.4437    16.0811   -18.0120 N.4        1  LIG1  -0.3800
      3 H1        -18.3291    15.7226   -17.6867 H          1  LIG1   0.4200
      4 C2        -16.5165    16.1977   -16.8786 C.3        1  LIG1  -0.0600
      5 C3        -17.6442    17.4037   -18.6187 C.3        1  LIG1  -0.0200
      6 C4        -18.6101    17.2824   -19.7992 C.3        1  LIG1   0.1900
      7 H2        -18.1929    16.6017   -20.5413 H          1  LIG1   0.1300
      8 N2        -18.8099    18.6015   -20.4042 N.am       1  LIG1  -0.7600
      9 C5        -18.0011    19.0158   -21.3996 C.2        1  LIG1   0.6900
     10 O1        -17.1057    18.2948   -21.7954 O.2        1  LIG1  -0.5800
     11 N3        -18.1850    20.2295   -21.9561 N.am       1  LIG1  -0.7300
     12 C6        -17.3060    20.6800   -23.0382 C.3        1  LIG1   0.1400
     13 C7        -16.1037    21.4173   -22.4451 C.3        1  LIG1  -0.1500
     14 C8        -15.1859    21.8877   -23.5752 C.3        1  LIG1   0.1400
     15 N4        -14.0346    22.5938   -23.0073 N.pl3      1  LIG1  -0.3900
     16 C9        -13.5159    23.7597   -23.4299 C.2        1  LIG1   0.2600
     17 N5        -12.4981    24.0534   -22.6620 N.2        1  LIG1  -0.5400
     18 C10       -12.3372    23.1031   -21.7419 C.2        1  LIG1   0.2100
     19 N6        -13.2577    22.1901   -21.9092 N.2        1  LIG1  -0.3200
     20 C11       -19.9323    16.7470   -19.3134 C.ar       1  LIG1  -0.1300
     21 C12       -20.7179    15.9805   -20.1539 C.ar       1  LIG1  -0.0800
     22 C13       -21.9307    15.4889   -19.7094 C.ar       1  LIG1  -0.1500
     23 C14       -22.3585    15.7638   -18.4216 C.ar       1  LIG1   0.1300
     24 F1        -23.5436    15.2833   -17.9860 F          1  LIG1  -0.1300
     25 C15       -21.5705    16.5311   -17.5805 C.ar       1  LIG1  -0.1500
     26 C16       -20.3560    17.0177   -18.0256 C.ar       1  LIG1  -0.0600
     27 H3        -15.9253    15.5509   -19.3635 H          1  LIG1   0.1200
     28 H4        -16.7330    14.1823   -18.5620 H          1  LIG1   0.1200
     29 H5        -17.5697    15.0773   -19.8531 H          1  LIG1   0.1300
     30 H6        -16.9336    16.8784   -16.1364 H          1  LIG1   0.1400
     31 H7        -16.3677    15.2163   -16.4283 H          1  LIG1   0.1200
     32 H8        -15.5601    16.5851   -17.2300 H          1  LIG1   0.1200
     33 H9        -18.0614    18.0845   -17.8766 H          1  LIG1   0.1500
     34 H10       -16.6879    17.7910   -18.9702 H          1  LIG1   0.1400
     35 H11       -19.5244    19.1767   -20.0884 H          1  LIG1   0.4100
     36 H12       -18.8994    20.8047   -21.6404 H          1  LIG1   0.4000
     37 H13       -16.9588    19.8175   -23.6070 H          1  LIG1   0.0800
     38 H14       -17.8558    21.3522   -23.6967 H          1  LIG1   0.0800
     39 H15       -16.4511    22.2798   -21.8762 H          1  LIG1   0.0900
     40 H16       -15.5541    20.7449   -21.7865 H          1  LIG1   0.0800
     41 H17       -14.8386    21.0252   -24.1440 H          1  LIG1   0.1100
     42 H18       -15.7357    22.5600   -24.2338 H          1  LIG1   0.1000
     43 H19       -13.8758    24.3504   -24.2592 H          1  LIG1   0.2200
     44 H20       -11.5729    23.0914   -20.9790 H          1  LIG1   0.2200
     45 H21       -20.3840    15.7662   -21.1584 H          1  LIG1   0.1300
     46 H22       -22.5446    14.8908   -20.3666 H          1  LIG1   0.1500
     47 H23       -21.9034    16.7465   -16.5759 H          1  LIG1   0.1500
     48 H24       -19.7411    17.6159   -17.3696 H          1  LIG1   0.1400
@<TRIPOS>BOND
     1    1    2 1
     2    1   27 1
     3    1   28 1
     4    1   29 1
     5    2    3 1
     6    2    4 1
     7    2    5 1
     8    4   30 1
     9    4   31 1
    10    4   32 1
    11    5    6 1
    12    5   33 1
    13    5   34 1
    14    6    7 1
    15    6    8 1
    16    6   20 1
    17    8    9 am
    18    8   35 1
    19    9   10 2
    20    9   11 am
    21   11   12 1
    22   11   36 1
    23   12   13 1
    24   12   37 1
    25   12   38 1
    26   13   14 1
    27   13   39 1
    28   13   40 1
    29   14   15 1
    30   14   41 1
    31   14   42 1
    32   15   19 1
    33   15   16 1
    34   16   17 2
    35   16   43 1
    36   17   18 1
    37   18   19 2
    38   18   44 1
    39   20   26 ar
    40   20   21 ar
    41   21   22 ar
    42   21   45 1
    43   22   23 ar
    44   22   46 1
    45   23   24 1
    46   23   25 ar
    47   25   26 ar
    48   25   47 1
    49   26   48 1
##########                 Name:     ZINC000599506959
##########          Protonation:                 none
##########               SMILES:   CCOC(=O)C[C@H](O)C[N@@H+]1C[C@@H](O)[C@H](OC2=CN(C)N=C2)C1
##########            Long Name:   NO_LONG_NAME
##########          FlexRecCode: 1
##########               Number:                11219
##########   Ligand Source File: /nfs/db/export/3D/DB/ADMO/DBADMO.xbs.db2.gz
##########                 Rank:                    1
##########               Setnum:                  500
##########             Matchnum:                    1
##########                Cloud:                    1
##########        Electrostatic:           -52.569340
##########                 Gist:             0.000000
##########        Van der Waals:           -26.807940
##########  Ligand Polar Desolv:            18.300665
########## Ligand Apolar Desolv:             0.078155
##########      Internal Energy:             0.000000
##########      Receptor Energy:             0.000000
########## Receptor Desolvation:             0.000000
########## Receptor Hydrophobic:             0.000000
##########         Total Energy:           -60.998459
##########        Ligand Charge:             1.000000
##########            Arbitrary:    +999.9990
##########        Ligand Energy:             0.000000

@<TRIPOS>MOLECULE
 ZINC000599506959      none
   46    47     0     0     0



@<TRIPOS>ATOM
      1 C1        -18.0693    22.6186   -21.7870 C.3        1  LIG1  -0.1600
      2 C2        -17.5513    21.2053   -21.5125 C.3        1  LIG1   0.0600
      3 O1        -18.6738    20.3169   -21.2701 O.3        1  LIG1  -0.3600
      4 C3        -18.3885    19.0310   -21.0114 C.2        1  LIG1   0.4600
      5 O2        -17.2388    18.6602   -20.9882 O.2        1  LIG1  -0.4900
      6 C4        -19.5021    18.0499   -20.7498 C.3        1  LIG1  -0.1500
      7 C5        -19.0054    16.9551   -19.8037 C.3        1  LIG1   0.1000
      8 H1        -18.1629    16.4353   -20.2600 H          1  LIG1   0.1300
      9 O3        -20.0612    16.0247   -19.5556 O.3        1  LIG1  -0.5400
     10 C6        -18.5605    17.5858   -18.4827 C.3        1  LIG1  -0.0400
     11 N1        -18.0836    16.5346   -17.5741 N.4        1  LIG1  -0.3900
     12 H2        -18.6717    15.7174   -17.6403 H          1  LIG1   0.4300
     13 C7        -18.0447    17.0349   -16.1758 C.3        1  LIG1  -0.0300
     14 C8        -17.0443    16.1041   -15.4573 C.3        1  LIG1   0.0600
     15 H3        -16.4511    16.6688   -14.7380 H          1  LIG1   0.1200
     16 O4        -17.7383    15.0411   -14.8014 O.3        1  LIG1  -0.5500
     17 C9        -16.1407    15.5466   -16.5765 C.3        1  LIG1   0.0800
     18 H4        -16.2266    14.4612   -16.6269 H          1  LIG1   0.1200
     19 O5        -14.7814    15.9263   -16.3524 O.3        1  LIG1  -0.2800
     20 C10       -14.2059    15.5076   -15.1908 C.2        1  LIG1  -0.0600
     21 C11       -14.5089    14.3724   -14.5140 C.2        1  LIG1   0.0500
     22 N2        -13.7131    14.3257   -13.4137 N.pl3      1  LIG1  -0.3600
     23 C12       -13.7047    13.2689   -12.3994 C.3        1  LIG1   0.1000
     24 N3        -12.9015    15.4675   -13.4222 N.2        1  LIG1  -0.2600
     25 C13       -13.1917    16.1706   -14.4872 C.2        1  LIG1   0.0000
     26 C14       -16.6723    16.1851   -17.8790 C.3        1  LIG1   0.0000
     27 H5        -17.2267    23.2855   -21.9690 H          1  LIG1   0.0700
     28 H6        -18.7172    22.6041   -22.6634 H          1  LIG1   0.0700
     29 H7        -18.6333    22.9728   -20.9241 H          1  LIG1   0.0900
     30 H8        -16.9873    20.8511   -22.3754 H          1  LIG1   0.0700
     31 H9        -16.9034    21.2197   -20.6361 H          1  LIG1   0.0700
     32 H10       -20.3445    18.5697   -20.2937 H          1  LIG1   0.1300
     33 H11       -19.8189    17.6006   -21.6910 H          1  LIG1   0.1200
     34 H12       -19.8168    15.3014   -18.9620 H          1  LIG1   0.3900
     35 H13       -17.7549    18.2953   -18.6719 H          1  LIG1   0.1500
     36 H14       -19.4029    18.1057   -18.0264 H          1  LIG1   0.1400
     37 H15       -17.6906    18.0654   -16.1505 H          1  LIG1   0.1400
     38 H16       -19.0307    16.9593   -15.7175 H          1  LIG1   0.1600
     39 H17       -18.2575    14.4838   -15.3972 H          1  LIG1   0.4000
     40 H18       -15.2489    13.6388   -14.7978 H          1  LIG1   0.1900
     41 H19       -12.9621    13.5032   -11.6366 H          1  LIG1   0.0800
     42 H20       -14.6900    13.1999   -11.9382 H          1  LIG1   0.1000
     43 H21       -13.4557    12.3170   -12.8684 H          1  LIG1   0.1000
     44 H22       -12.7330    17.1062   -14.7712 H          1  LIG1   0.1900
     45 H23       -16.6233    15.4703   -18.7004 H          1  LIG1   0.1500
     46 H24       -16.1043    17.0834   -18.1213 H          1  LIG1   0.1500
@<TRIPOS>BOND
     1    1    2 1
     2    1   27 1
     3    1   28 1
     4    1   29 1
     5    2    3 1
     6    2   30 1
     7    2   31 1
     8    3    4 1
     9    4    5 2
    10    4    6 1
    11    6    7 1
    12    6   32 1
    13    6   33 1
    14    7    8 1
    15    7    9 1
    16    7   10 1
    17    9   34 1
    18   10   11 1
    19   10   35 1
    20   10   36 1
    21   11   12 1
    22   11   26 1
    23   11   13 1
    24   13   14 1
    25   13   37 1
    26   13   38 1
    27   14   15 1
    28   14   16 1
    29   14   17 1
    30   16   39 1
    31   17   18 1
    32   17   19 1
    33   17   26 1
    34   19   20 1
    35   20   25 1
    36   20   21 2
    37   21   22 1
    38   21   40 1
    39   22   23 1
    40   22   24 1
    41   23   41 1
    42   23   42 1
    43   23   43 1
    44   24   25 2
    45   25   44 1
    46   26   45 1
    47   26   46 1
##########                 Name:     ZINC000492588861
##########          Protonation:                 none
##########               SMILES:   CCC1=CC=C(/C=C/C(=O)NC[C@@H](C)[NH+]2CCCC2)O1
##########            Long Name:   NO_LONG_NAME
##########          FlexRecCode: 1
##########               Number:                 2299
##########   Ligand Source File: /nfs/db/export/3D/CE/ADRO/CEADRO.xbxr.db2.gz
##########                 Rank:                    1
##########               Setnum:                   83
##########             Matchnum:                    1
##########                Cloud:                    1
##########        Electrostatic:           -41.283508
##########                 Gist:             0.000000
##########        Van der Waals:           -28.164125
##########  Ligand Polar Desolv:            13.488889
########## Ligand Apolar Desolv:            -5.021201
##########      Internal Energy:             0.000000
##########      Receptor Energy:             0.000000
########## Receptor Desolvation:             0.000000
########## Receptor Hydrophobic:             0.000000
##########         Total Energy:           -60.979942
##########        Ligand Charge:             1.000000
##########            Arbitrary:    +999.9990
##########        Ligand Energy:             0.000000

@<TRIPOS>MOLECULE
 ZINC000492588861      none
   45    46     0     0     0



@<TRIPOS>ATOM
      1 C1        -12.0752    14.2182   -12.3093 C.3        1  LIG1  -0.1500
      2 C2        -13.5306    14.4588   -11.9033 C.3        1  LIG1  -0.0500
      3 C3        -14.4109    14.3887   -13.1245 C.2        1  LIG1   0.0300
      4 C4        -15.0081    13.2726   -13.5981 C.2        1  LIG1  -0.2200
      5 C5        -15.7308    13.6424   -14.7426 C.2        1  LIG1  -0.1300
      6 C6        -15.5320    14.9970   -14.9116 C.2        1  LIG1  -0.0400
      7 C7        -16.0760    15.7976   -15.9454 C.2        1  LIG1   0.0600
      8 C8        -16.3407    17.1085   -15.7197 C.2        1  LIG1  -0.2500
      9 C9        -16.8844    17.9087   -16.7530 C.2        1  LIG1   0.5700
     10 O1        -16.6347    19.0998   -16.7958 O.2        1  LIG1  -0.5400
     11 N1        -17.6784    17.3525   -17.6893 N.am       1  LIG1  -0.7300
     12 C10       -18.2411    18.1807   -18.7586 C.3        1  LIG1   0.1000
     13 C11       -19.0983    17.3108   -19.6801 C.3        1  LIG1   0.0200
     14 H1        -19.5169    17.9270   -20.4757 H          1  LIG1   0.1400
     15 C12       -18.2320    16.2077   -20.2914 C.3        1  LIG1  -0.1800
     16 N2        -20.1891    16.7039   -18.9056 N.4        1  LIG1  -0.3900
     17 H2        -19.8135    16.1305   -18.1651 H          1  LIG1   0.4300
     18 C13       -21.0654    17.7614   -18.3398 C.3        1  LIG1  -0.0100
     19 C14       -22.3960    17.0140   -18.0729 C.3        1  LIG1  -0.1400
     20 C15       -22.4973    16.0482   -19.2760 C.3        1  LIG1  -0.1400
     21 C16       -21.0532    15.8929   -19.7904 C.3        1  LIG1  -0.0100
     22 O2        -14.7321    15.4242   -13.9123 O.3        1  LIG1  -0.1600
     23 H3        -11.4384    14.2688   -11.4260 H          1  LIG1   0.0600
     24 H4        -11.9838    13.2333   -12.7672 H          1  LIG1   0.0600
     25 H5        -11.7665    14.9812   -13.0238 H          1  LIG1   0.0700
     26 H6        -13.8394    13.6959   -11.1887 H          1  LIG1   0.1000
     27 H7        -13.6220    15.4438   -11.4456 H          1  LIG1   0.0900
     28 H8        -14.9411    12.2812   -13.1750 H          1  LIG1   0.1600
     29 H9        -16.3254    12.9937   -15.3687 H          1  LIG1   0.1600
     30 H10       -16.2799    15.3642   -16.9133 H          1  LIG1   0.1600
     31 H11       -16.1367    17.5417   -14.7517 H          1  LIG1   0.1300
     32 H12       -17.8771    16.4037   -17.6552 H          1  LIG1   0.4100
     33 H13       -18.8584    18.9664   -18.3229 H          1  LIG1   0.0900
     34 H14       -17.4319    18.6312   -19.3334 H          1  LIG1   0.0900
     35 H15       -18.8428    15.5879   -20.9479 H          1  LIG1   0.0900
     36 H16       -17.4226    16.6580   -20.8663 H          1  LIG1   0.0900
     37 H17       -17.8134    15.5914   -19.4958 H          1  LIG1   0.1000
     38 H18       -20.6490    18.1495   -17.4101 H          1  LIG1   0.1400
     39 H19       -21.2135    18.5650   -19.0613 H          1  LIG1   0.1300
     40 H20       -22.3456    16.4591   -17.1361 H          1  LIG1   0.1000
     41 H21       -23.2348    17.7101   -18.0655 H          1  LIG1   0.1200
     42 H22       -22.8893    15.0834   -18.9545 H          1  LIG1   0.1100
     43 H23       -23.1322    16.4759   -20.0519 H          1  LIG1   0.1000
     44 H24       -20.9824    16.2592   -20.8145 H          1  LIG1   0.1300
     45 H25       -20.7539    14.8458   -19.7463 H          1  LIG1   0.1300
@<TRIPOS>BOND
     1    1    2 1
     2    1   23 1
     3    1   24 1
     4    1   25 1
     5    2    3 1
     6    2   26 1
     7    2   27 1
     8    3   22 1
     9    3    4 2
    10    4    5 1
    11    4   28 1
    12    5    6 2
    13    5   29 1
    14    6    7 1
    15    6   22 1
    16    7    8 2
    17    7   30 1
    18    8    9 1
    19    8   31 1
    20    9   10 2
    21    9   11 am
    22   11   12 1
    23   11   32 1
    24   12   13 1
    25   12   33 1
    26   12   34 1
    27   13   14 1
    28   13   15 1
    29   13   16 1
    30   15   35 1
    31   15   36 1
    32   15   37 1
    33   16   17 1
    34   16   21 1
    35   16   18 1
    36   18   19 1
    37   18   38 1
    38   18   39 1
    39   19   20 1
    40   19   40 1
    41   19   41 1
    42   20   21 1
    43   20   42 1
    44   20   43 1
    45   21   44 1
    46   21   45 1
##########                 Name:     ZINC000657498570
##########          Protonation:                 none
##########               SMILES:   CC[C@@H](C)C[C@@H](CO)[NH2+]CC1=CC2=C(C)C=CC=C2N1
##########            Long Name:   NO_LONG_NAME
##########          FlexRecCode: 1
##########               Number:                 1994
##########   Ligand Source File: /nfs/db/export/3D/CG/ADRO/CGADRO.xawu.db2.gz
##########                 Rank:                    1
##########               Setnum:                  270
##########             Matchnum:                    1
##########                Cloud:                    1
##########        Electrostatic:           -45.393166
##########                 Gist:             0.000000
##########        Van der Waals:           -27.818773
##########  Ligand Polar Desolv:            15.466601
########## Ligand Apolar Desolv:            -3.242603
##########      Internal Energy:             0.000000
##########      Receptor Energy:             0.000000
########## Receptor Desolvation:             0.000000
########## Receptor Hydrophobic:             0.000000
##########         Total Energy:           -60.987938
##########        Ligand Charge:             1.000000
##########            Arbitrary:    +999.9990
##########        Ligand Energy:             0.000000

@<TRIPOS>MOLECULE
 ZINC000657498570      none
   47    48     0     0     0



@<TRIPOS>ATOM
      1 C1        -17.4167    20.0782   -21.1901 C.3        1  LIG1  -0.1600
      2 C2        -17.0881    18.9705   -20.1871 C.3        1  LIG1  -0.1200
      3 C3        -18.1249    17.8516   -20.3050 C.3        1  LIG1  -0.1000
      4 H1        -19.1165    18.2513   -20.0927 H          1  LIG1   0.0600
      5 C4        -18.0988    17.2793   -21.7238 C.3        1  LIG1  -0.1600
      6 C5        -17.7961    16.7440   -19.3022 C.3        1  LIG1  -0.1400
      7 C6        -17.8222    17.3163   -17.8834 C.3        1  LIG1   0.0300
      8 H2        -17.0835    18.1134   -17.7995 H          1  LIG1   0.1500
      9 C7        -19.2140    17.8774   -17.5853 C.3        1  LIG1   0.0500
     10 O1        -20.1825    16.8323   -17.6953 O.3        1  LIG1  -0.5800
     11 N1        -17.5065    16.2528   -16.9204 N.4        1  LIG1  -0.5100
     12 H3        -17.8347    16.5202   -16.0045 H          1  LIG1   0.4400
     13 H4        -17.9601    15.3971   -17.2037 H          1  LIG1   0.4200
     14 C8        -16.0527    16.0456   -16.8787 C.3        1  LIG1   0.0700
     15 C9        -15.7290    14.9545   -15.8908 C.2        1  LIG1  -0.0200
     16 C10       -14.7512    15.0116   -14.9729 C.2        1  LIG1  -0.1200
     17 C11       -14.7873    13.7497   -14.2298 C.ar       1  LIG1  -0.1200
     18 C12       -14.0390    13.2226   -13.1759 C.ar       1  LIG1  -0.0200
     19 C13       -12.9140    14.0235   -12.5726 C.3        1  LIG1  -0.1200
     20 C14       -14.3305    11.9779   -12.6927 C.ar       1  LIG1  -0.1400
     21 C15       -15.3648    11.2330   -13.2419 C.ar       1  LIG1  -0.0700
     22 C16       -16.1161    11.7340   -14.2828 C.ar       1  LIG1  -0.1400
     23 C17       -15.8372    12.9987   -14.7897 C.ar       1  LIG1   0.1200
     24 N2        -16.3921    13.7617   -15.7928 N.pl3      1  LIG1  -0.5900
     25 H5        -16.6780    20.8753   -21.1062 H          1  LIG1   0.0500
     26 H6        -17.3982    19.6705   -22.2007 H          1  LIG1   0.0600
     27 H7        -18.4084    20.4780   -20.9779 H          1  LIG1   0.0600
     28 H8        -16.0964    18.5706   -20.3995 H          1  LIG1   0.0700
     29 H9        -17.1067    19.3783   -19.1764 H          1  LIG1   0.0700
     30 H10       -18.8375    16.4823   -21.8076 H          1  LIG1   0.0700
     31 H11       -18.3330    18.0685   -22.4381 H          1  LIG1   0.0500
     32 H12       -17.1072    16.8797   -21.9360 H          1  LIG1   0.0700
     33 H13       -18.5348    15.9468   -19.3859 H          1  LIG1   0.1100
     34 H14       -16.8045    16.3443   -19.5144 H          1  LIG1   0.1000
     35 H15       -19.2326    18.2850   -16.5746 H          1  LIG1   0.0700
     36 H16       -19.4483    18.6665   -18.2998 H          1  LIG1   0.1000
     37 H17       -20.0359    16.0947   -17.0874 H          1  LIG1   0.4100
     38 H18       -15.6984    15.7566   -17.8682 H          1  LIG1   0.1400
     39 H19       -15.5627    16.9698   -16.5729 H          1  LIG1   0.1500
     40 H20       -14.0673    15.8320   -14.8130 H          1  LIG1   0.1600
     41 H21       -12.4508    13.4512   -11.7688 H          1  LIG1   0.0800
     42 H22       -12.1704    14.2403   -13.3394 H          1  LIG1   0.0700
     43 H23       -13.3071    14.9584   -12.1731 H          1  LIG1   0.0700
     44 H24       -13.7513    11.5705   -11.8773 H          1  LIG1   0.1300
     45 H25       -15.5827    10.2505   -12.8499 H          1  LIG1   0.1400
     46 H26       -16.9186    11.1464   -14.7036 H          1  LIG1   0.1300
     47 H27       -17.1401    13.4926   -16.3486 H          1  LIG1   0.4200
@<TRIPOS>BOND
     1    1    2 1
     2    1   25 1
     3    1   26 1
     4    1   27 1
     5    2    3 1
     6    2   28 1
     7    2   29 1
     8    3    4 1
     9    3    5 1
    10    3    6 1
    11    5   30 1
    12    5   31 1
    13    5   32 1
    14    6    7 1
    15    6   33 1
    16    6   34 1
    17    7    8 1
    18    7    9 1
    19    7   11 1
    20    9   10 1
    21    9   35 1
    22    9   36 1
    23   10   37 1
    24   11   12 1
    25   11   13 1
    26   11   14 1
    27   14   15 1
    28   14   38 1
    29   14   39 1
    30   15   24 1
    31   15   16 2
    32   16   17 1
    33   16   40 1
    34   17   23 ar
    35   17   18 ar
    36   18   19 1
    37   18   20 ar
    38   19   41 1
    39   19   42 1
    40   19   43 1
    41   20   21 ar
    42   20   44 1
    43   21   22 ar
    44   21   45 1
    45   22   23 ar
    46   22   46 1
    47   23   24 1
    48   24   47 1
##########                 Name:     ZINC000514779500
##########          Protonation:                 none
##########               SMILES:   Cc1cccc(CNC(=O)NCC2([NH+]3CCOCC3)CCOCC2)c1
##########            Long Name:   NO_LONG_NAME
##########          FlexRecCode: 1
##########               Number:                12052
##########   Ligand Source File: /nfs/db/export/3D/ED/ADMO/EDADMO.xcbg.db2.gz
##########                 Rank:                    1
##########               Setnum:                  123
##########             Matchnum:                    1
##########                Cloud:                    1
##########        Electrostatic:           -40.486343
##########                 Gist:             0.000000
##########        Van der Waals:           -32.119690
##########  Ligand Polar Desolv:            14.682413
########## Ligand Apolar Desolv:            -3.058210
##########      Internal Energy:             0.000000
##########      Receptor Energy:             0.000000
########## Receptor Desolvation:             0.000000
########## Receptor Hydrophobic:             0.000000
##########         Total Energy:           -60.981831
##########        Ligand Charge:             1.000000
##########            Arbitrary:    +999.9990
##########        Ligand Energy:             0.000000

@<TRIPOS>MOLECULE
 ZINC000514779500      none
   55    57     0     0     0



@<TRIPOS>ATOM
      1 C1        -13.0769    14.5046   -11.7049 C.3        1  LIG1  -0.1200
      2 C2        -14.0895    13.9518   -12.6744 C.ar       1  LIG1  -0.0800
      3 C3        -14.3228    12.5906   -12.7288 C.ar       1  LIG1  -0.1100
      4 C4        -15.2518    12.0834   -13.6183 C.ar       1  LIG1  -0.1200
      5 C5        -15.9476    12.9376   -14.4529 C.ar       1  LIG1  -0.1100
      6 C6        -15.7149    14.2994   -14.3979 C.ar       1  LIG1  -0.1200
      7 C7        -16.4731    15.2308   -15.3082 C.3        1  LIG1   0.1800
      8 N1        -15.5466    16.2027   -15.8939 N.am       1  LIG1  -0.7300
      9 C8        -16.0042    17.1412   -16.7462 C.2        1  LIG1   0.7100
     10 O1        -15.2352    17.9479   -17.2323 O.2        1  LIG1  -0.5700
     11 N2        -17.3141    17.1854   -17.0596 N.am       1  LIG1  -0.7700
     12 C9        -17.8116    18.2055   -17.9861 C.3        1  LIG1   0.1200
     13 C10       -18.4493    17.5253   -19.1991 C.3        1  LIG1   0.0400
     14 N3        -19.5690    16.6830   -18.7580 N.4        1  LIG1  -0.3800
     15 H1        -19.2297    15.9798   -18.1188 H          1  LIG1   0.4100
     16 C11       -20.1806    16.0308   -19.9242 C.3        1  LIG1  -0.0500
     17 C12       -21.3467    15.1536   -19.4620 C.3        1  LIG1   0.0400
     18 O2        -22.2927    15.9607   -18.7553 O.3        1  LIG1  -0.3500
     19 C13       -21.7381    16.6367   -17.6234 C.3        1  LIG1   0.0400
     20 C14       -20.5726    17.5165   -18.0819 C.3        1  LIG1  -0.0500
     21 C15       -18.9601    18.5905   -20.1742 C.3        1  LIG1  -0.1700
     22 C16       -17.7746    19.4124   -20.6869 C.3        1  LIG1   0.0600
     23 O3        -16.8264    18.5421   -21.3080 O.3        1  LIG1  -0.3600
     24 C17       -16.2790    17.5551   -20.4316 C.3        1  LIG1   0.0600
     25 C18       -17.4044    16.6586   -19.9086 C.3        1  LIG1  -0.1700
     26 C19       -14.7892    14.8068   -13.5056 C.ar       1  LIG1  -0.1000
     27 H2        -12.6309    13.6865   -11.1395 H          1  LIG1   0.0700
     28 H3        -12.2982    15.0331   -12.2550 H          1  LIG1   0.0700
     29 H4        -13.5692    15.1944   -11.0193 H          1  LIG1   0.0700
     30 H5        -13.7792    11.9231   -12.0767 H          1  LIG1   0.1300
     31 H6        -15.4337    11.0197   -13.6612 H          1  LIG1   0.1300
     32 H7        -16.6728    12.5415   -15.1482 H          1  LIG1   0.1200
     33 H8        -16.9468    14.6556   -16.1037 H          1  LIG1   0.0800
     34 H9        -17.2371    15.7565   -14.7354 H          1  LIG1   0.0800
     35 H10       -14.6036    16.1709   -15.6682 H          1  LIG1   0.4000
     36 H11       -17.9277    16.5418   -16.6720 H          1  LIG1   0.3900
     37 H12       -18.5561    18.8219   -17.4821 H          1  LIG1   0.1100
     38 H13       -16.9832    18.8327   -18.3150 H          1  LIG1   0.1000
     39 H14       -20.5481    16.7902   -20.6144 H          1  LIG1   0.1400
     40 H15       -19.4369    15.4120   -20.4263 H          1  LIG1   0.1400
     41 H16       -21.8290    14.7025   -20.3291 H          1  LIG1   0.1400
     42 H17       -20.9735    14.3693   -18.8033 H          1  LIG1   0.0800
     43 H18       -22.5037    17.2589   -17.1598 H          1  LIG1   0.1400
     44 H19       -21.3782    15.9032   -16.9017 H          1  LIG1   0.0800
     45 H20       -20.1201    18.0007   -17.2166 H          1  LIG1   0.1400
     46 H21       -20.9398    18.2754   -18.7728 H          1  LIG1   0.1400
     47 H22       -19.4582    18.1065   -21.0143 H          1  LIG1   0.1000
     48 H23       -19.6634    19.2465   -19.6613 H          1  LIG1   0.1000
     49 H24       -18.1270    20.1442   -21.4139 H          1  LIG1   0.1200
     50 H25       -17.3015    19.9284   -19.8514 H          1  LIG1   0.0700
     51 H26       -15.5539    16.9488   -20.9746 H          1  LIG1   0.1200
     52 H27       -15.7864    18.0466   -19.5927 H          1  LIG1   0.0700
     53 H28       -16.9952    15.9328   -19.2058 H          1  LIG1   0.1100
     54 H29       -17.8711    16.1354   -20.7434 H          1  LIG1   0.1100
     55 H30       -14.6074    15.8705   -13.4628 H          1  LIG1   0.1200
@<TRIPOS>BOND
     1    1    2 1
     2    1   27 1
     3    1   28 1
     4    1   29 1
     5    2   26 ar
     6    2    3 ar
     7    3    4 ar
     8    3   30 1
     9    4    5 ar
    10    4   31 1
    11    5    6 ar
    12    5   32 1
    13    6    7 1
    14    6   26 ar
    15    7    8 1
    16    7   33 1
    17    7   34 1
    18    8    9 am
    19    8   35 1
    20    9   10 2
    21    9   11 am
    22   11   12 1
    23   11   36 1
    24   12   13 1
    25   12   37 1
    26   12   38 1
    27   13   25 1
    28   13   14 1
    29   13   21 1
    30   14   15 1
    31   14   20 1
    32   14   16 1
    33   16   17 1
    34   16   39 1
    35   16   40 1
    36   17   18 1
    37   17   41 1
    38   17   42 1
    39   18   19 1
    40   19   20 1
    41   19   43 1
    42   19   44 1
    43   20   45 1
    44   20   46 1
    45   21   22 1
    46   21   47 1
    47   21   48 1
    48   22   23 1
    49   22   49 1
    50   22   50 1
    51   23   24 1
    52   24   25 1
    53   24   51 1
    54   24   52 1
    55   25   53 1
    56   25   54 1
    57   26   55 1
##########                 Name:     ZINC000540595123
##########          Protonation:                 none
##########               SMILES:   CCOc1cccc2cc([C@@H](C)[NH2+]CC3(O)CCCCC3)oc21
##########            Long Name:   NO_LONG_NAME
##########          FlexRecCode: 1
##########               Number:                  354
##########   Ligand Source File: /nfs/db/export/3D/DI/ADRO/DIADRO.xgq.db2.gz
##########                 Rank:                    1
##########               Setnum:                   95
##########             Matchnum:                    1
##########                Cloud:                    1
##########        Electrostatic:           -36.614544
##########                 Gist:             0.000000
##########        Van der Waals:           -29.993437
##########  Ligand Polar Desolv:            10.000552
########## Ligand Apolar Desolv:            -4.373957
##########      Internal Energy:             0.000000
##########      Receptor Energy:             0.000000
########## Receptor Desolvation:             0.000000
########## Receptor Hydrophobic:             0.000000
##########         Total Energy:           -60.981384
##########        Ligand Charge:             1.000000
##########            Arbitrary:    +999.9990
##########        Ligand Energy:             0.000000

@<TRIPOS>MOLECULE
 ZINC000540595123      none
   51    53     0     0     0



@<TRIPOS>ATOM
      1 C1        -15.0722    11.3849   -15.4018 C.3        1  LIG1  -0.1500
      2 C2        -16.4480    12.0502   -15.3254 C.3        1  LIG1   0.0500
      3 O1        -16.5187    12.8646   -14.1533 O.3        1  LIG1  -0.3100
      4 C3        -15.6170    13.8769   -14.0498 C.ar       1  LIG1   0.1500
      5 C4        -15.5818    14.8817   -15.0145 C.ar       1  LIG1   0.0400
      6 O2        -16.2946    15.1160   -16.1355 O.3        1  LIG1  -0.1900
      7 C5        -15.8757    16.2393   -16.7434 C.2        1  LIG1  -0.0500
      8 C6        -16.4523    16.7965   -18.0194 C.3        1  LIG1   0.1300
      9 H1        -16.3539    17.8819   -18.0191 H          1  LIG1   0.1700
     10 C7        -15.6968    16.2161   -19.2166 C.3        1  LIG1  -0.1900
     11 N1        -17.8727    16.4337   -18.1142 N.4        1  LIG1  -0.5100
     12 H2        -17.9559    15.4825   -18.4404 H          1  LIG1   0.4400
     13 H3        -18.3023    16.5162   -17.2049 H          1  LIG1   0.4300
     14 C8        -18.5465    17.3357   -19.0578 C.3        1  LIG1   0.0000
     15 C9        -20.0259    16.9579   -19.1566 C.3        1  LIG1   0.1100
     16 O3        -20.1551    15.5347   -19.1571 O.3        1  LIG1  -0.5600
     17 C10       -20.7814    17.5382   -17.9594 C.3        1  LIG1  -0.1600
     18 C11       -22.2607    17.1604   -18.0581 C.3        1  LIG1  -0.1200
     19 C12       -22.8463    17.7260   -19.3535 C.3        1  LIG1  -0.1300
     20 C13       -22.0906    17.1458   -20.5508 C.3        1  LIG1  -0.1300
     21 C14       -20.6113    17.5235   -20.4520 C.3        1  LIG1  -0.1400
     22 C15       -14.8709    16.7918   -16.0500 C.2        1  LIG1  -0.1300
     23 C16       -14.6443    15.9190   -14.8918 C.ar       1  LIG1  -0.1000
     24 C17       -13.7590    15.9406   -13.8138 C.ar       1  LIG1  -0.1000
     25 C18       -13.8088    14.9390   -12.8696 C.ar       1  LIG1  -0.0800
     26 C19       -14.7367    13.9145   -12.9838 C.ar       1  LIG1  -0.1700
     27 H4        -15.0184    10.7637   -16.2959 H          1  LIG1   0.0700
     28 H5        -14.2995    12.1523   -15.4454 H          1  LIG1   0.0700
     29 H6        -14.9190    10.7646   -14.5187 H          1  LIG1   0.0900
     30 H7        -16.6012    12.6704   -16.2086 H          1  LIG1   0.0700
     31 H8        -17.2207    11.2828   -15.2817 H          1  LIG1   0.0700
     32 H9        -16.1139    16.6190   -20.1395 H          1  LIG1   0.0900
     33 H10       -14.6430    16.4853   -19.1462 H          1  LIG1   0.1100
     34 H11       -15.7953    15.1306   -19.2169 H          1  LIG1   0.0900
     35 H12       -18.4566    18.3632   -18.7054 H          1  LIG1   0.1500
     36 H13       -18.0824    17.2465   -20.0399 H          1  LIG1   0.1400
     37 H14       -19.8038    15.1077   -18.3637 H          1  LIG1   0.4000
     38 H15       -20.3643    17.1351   -17.0365 H          1  LIG1   0.0700
     39 H16       -20.6829    18.6237   -17.9590 H          1  LIG1   0.0900
     40 H17       -22.3593    16.0748   -18.0584 H          1  LIG1   0.0700
     41 H18       -22.7990    17.5738   -17.2051 H          1  LIG1   0.0800
     42 H19       -23.9001    17.4569   -19.4239 H          1  LIG1   0.0800
     43 H20       -22.7477    18.8115   -19.3532 H          1  LIG1   0.0700
     44 H21       -22.1891    16.0602   -20.5511 H          1  LIG1   0.0700
     45 H22       -22.5077    17.5486   -21.4736 H          1  LIG1   0.0800
     46 H23       -20.5128    18.6091   -20.4515 H          1  LIG1   0.0800
     47 H24       -20.0730    17.1102   -21.3048 H          1  LIG1   0.0800
     48 H25       -14.3351    17.6971   -16.2944 H          1  LIG1   0.1700
     49 H26       -13.0376    16.7389   -13.7201 H          1  LIG1   0.1400
     50 H27       -13.1245    14.9536   -12.0342 H          1  LIG1   0.1400
     51 H28       -14.7667    13.1344   -12.2376 H          1  LIG1   0.1500
@<TRIPOS>BOND
     1    1    2 1
     2    1   27 1
     3    1   28 1
     4    1   29 1
     5    2    3 1
     6    2   30 1
     7    2   31 1
     8    3    4 1
     9    4   26 ar
    10    4    5 ar
    11    5   23 ar
    12    5    6 1
    13    6    7 1
    14    7    8 1
    15    7   22 2
    16    8    9 1
    17    8   10 1
    18    8   11 1
    19   10   32 1
    20   10   33 1
    21   10   34 1
    22   11   12 1
    23   11   13 1
    24   11   14 1
    25   14   15 1
    26   14   35 1
    27   14   36 1
    28   15   21 1
    29   15   16 1
    30   15   17 1
    31   16   37 1
    32   17   18 1
    33   17   38 1
    34   17   39 1
    35   18   19 1
    36   18   40 1
    37   18   41 1
    38   19   20 1
    39   19   42 1
    40   19   43 1
    41   20   21 1
    42   20   44 1
    43   20   45 1
    44   21   46 1
    45   21   47 1
    46   22   23 1
    47   22   48 1
    48   23   24 ar
    49   24   25 ar
    50   24   49 1
    51   25   26 ar
    52   25   50 1
    53   26   51 1
##########                 Name:     ZINC000602819835
##########          Protonation:                 none
##########               SMILES:   CCOC(=O)C1=NC=C(C[N@@H+]2CCCC[C@@H]2C[C@H](C)O)S1
##########            Long Name:   NO_LONG_NAME
##########          FlexRecCode: 1
##########               Number:                 7339
##########   Ligand Source File: /nfs/db/export/3D/DE/ADMO/DEADMO.xaww.db2.gz
##########                 Rank:                    1
##########               Setnum:                   54
##########             Matchnum:                    1
##########                Cloud:                    1
##########        Electrostatic:           -43.334438
##########                 Gist:             0.000000
##########        Van der Waals:           -27.361765
##########  Ligand Polar Desolv:            12.711676
########## Ligand Apolar Desolv:            -3.014561
##########      Internal Energy:             0.000000
##########      Receptor Energy:             0.000000
########## Receptor Desolvation:             0.000000
########## Receptor Hydrophobic:             0.000000
##########         Total Energy:           -60.999092
##########        Ligand Charge:             1.000000
##########            Arbitrary:    +999.9990
##########        Ligand Energy:             0.000000

@<TRIPOS>MOLECULE
 ZINC000602819835      none
   46    47     0     0     0



@<TRIPOS>ATOM
      1 C1        -14.9224    11.2019   -12.5151 C.3        1  LIG1  -0.1600
      2 C2        -14.2875    12.5930   -12.5642 C.3        1  LIG1   0.0600
      3 O1        -15.0074    13.4205   -13.5157 O.3        1  LIG1  -0.3300
      4 C3        -14.5716    14.6857   -13.6793 C.2        1  LIG1   0.5400
      5 O2        -13.6160    15.0862   -13.0441 O.2        1  LIG1  -0.4800
      6 C4        -15.2526    15.5814   -14.6269 C.2        1  LIG1   0.0200
      7 N1        -14.9200    16.8201   -14.8737 N.2        1  LIG1  -0.4000
      8 C5        -15.6565    17.4445   -15.7538 C.2        1  LIG1   0.0800
      9 C6        -16.6595    16.7294   -16.2888 C.2        1  LIG1  -0.3400
     10 C7        -17.6382    17.2312   -17.3191 C.3        1  LIG1   0.0800
     11 N2        -17.8041    16.2191   -18.3708 N.4        1  LIG1  -0.3700
     12 H1        -18.1533    15.3651   -17.9621 H          1  LIG1   0.4300
     13 C8        -16.5072    15.9603   -19.0077 C.3        1  LIG1  -0.0100
     14 C9        -15.9359    17.2680   -19.5599 C.3        1  LIG1  -0.1500
     15 C10       -16.9071    17.8470   -20.5927 C.3        1  LIG1  -0.1400
     16 C11       -18.2770    18.0433   -19.9369 C.3        1  LIG1  -0.1400
     17 C12       -18.7602    16.7075   -19.3715 C.3        1  LIG1   0.0300
     18 H2        -18.8434    15.9804   -20.1793 H          1  LIG1   0.1400
     19 C13       -20.1287    16.8978   -18.7144 C.3        1  LIG1  -0.1400
     20 C14       -21.2141    16.9149   -19.7926 C.3        1  LIG1   0.0900
     21 H3        -21.0260    17.7359   -20.4845 H          1  LIG1   0.0700
     22 C15       -22.5827    17.1052   -19.1354 C.3        1  LIG1  -0.1900
     23 O3        -21.1964    15.6769   -20.5062 O.3        1  LIG1  -0.6000
     24 S1        -16.6443    15.1557   -15.6182 S.3        1  LIG1   0.3400
     25 H4        -14.3819    10.5808   -11.8007 H          1  LIG1   0.0900
     26 H5        -15.9640    11.2886   -12.2060 H          1  LIG1   0.0700
     27 H6        -14.8735    10.7451   -13.5036 H          1  LIG1   0.0700
     28 H7        -14.3363    13.0499   -11.5757 H          1  LIG1   0.0800
     29 H8        -13.2458    12.5064   -12.8732 H          1  LIG1   0.0800
     30 H9        -15.4708    18.4710   -16.0332 H          1  LIG1   0.1900
     31 H10       -18.6002    17.4223   -16.8437 H          1  LIG1   0.1400
     32 H11       -17.2609    18.1542   -17.7595 H          1  LIG1   0.1500
     33 H12       -15.8181    15.5451   -18.2721 H          1  LIG1   0.1300
     34 H13       -16.6387    15.2488   -19.8229 H          1  LIG1   0.1300
     35 H14       -15.8037    17.9801   -18.7453 H          1  LIG1   0.0900
     36 H15       -14.9738    17.0733   -20.0339 H          1  LIG1   0.1100
     37 H16       -16.5319    18.8069   -20.9477 H          1  LIG1   0.1000
     38 H17       -17.0002    17.1577   -21.4319 H          1  LIG1   0.0800
     39 H18       -18.1933    18.7715   -19.1301 H          1  LIG1   0.0900
     40 H19       -18.9883    18.4029   -20.6803 H          1  LIG1   0.1100
     41 H20       -20.3169    16.0767   -18.0225 H          1  LIG1   0.1000
     42 H21       -20.1423    17.8420   -18.1700 H          1  LIG1   0.1300
     43 H22       -23.3559    17.1174   -19.9036 H          1  LIG1   0.0700
     44 H23       -22.7707    16.2843   -18.4435 H          1  LIG1   0.0800
     45 H24       -22.5963    18.0495   -18.5911 H          1  LIG1   0.0700
     46 H25       -21.3571    14.9011   -19.9518 H          1  LIG1   0.4100
@<TRIPOS>BOND
     1    1    2 1
     2    1   25 1
     3    1   26 1
     4    1   27 1
     5    2    3 1
     6    2   28 1
     7    2   29 1
     8    3    4 1
     9    4    5 2
    10    4    6 1
    11    6   24 1
    12    6    7 2
    13    7    8 1
    14    8    9 2
    15    8   30 1
    16    9   10 1
    17    9   24 1
    18   10   11 1
    19   10   31 1
    20   10   32 1
    21   11   12 1
    22   11   17 1
    23   11   13 1
    24   13   14 1
    25   13   33 1
    26   13   34 1
    27   14   15 1
    28   14   35 1
    29   14   36 1
    30   15   16 1
    31   15   37 1
    32   15   38 1
    33   16   17 1
    34   16   39 1
    35   16   40 1
    36   17   18 1
    37   17   19 1
    38   19   20 1
    39   19   41 1
    40   19   42 1
    41   20   21 1
    42   20   22 1
    43   20   23 1
    44   22   43 1
    45   22   44 1
    46   22   45 1
    47   23   46 1
##########                 Name:     ZINC000535008050
##########          Protonation:                 none
##########               SMILES:   COc1nc2ccccc2cc1C[NH2+]C[C@@H](C)Cn1ccnc1C
##########            Long Name:   NO_LONG_NAME
##########          FlexRecCode: 1
##########               Number:                11488
##########   Ligand Source File: /nfs/db/export/3D/DG/ADRO/DGADRO.xbti.db2.gz
##########                 Rank:                    1
##########               Setnum:                  137
##########             Matchnum:                    1
##########                Cloud:                    1
##########        Electrostatic:           -42.289558
##########                 Gist:             0.000000
##########        Van der Waals:           -35.175476
##########  Ligand Polar Desolv:            21.185104
########## Ligand Apolar Desolv:            -4.697210
##########      Internal Energy:             0.000000
##########      Receptor Energy:             0.000000
########## Receptor Desolvation:             0.000000
########## Receptor Hydrophobic:             0.000000
##########         Total Energy:           -60.977142
##########        Ligand Charge:             1.000000
##########            Arbitrary:    +999.9990
##########        Ligand Energy:             0.000000

@<TRIPOS>MOLECULE
 ZINC000535008050      none
   49    51     0     0     0



@<TRIPOS>ATOM
      1 C1        -13.5253    18.6435   -14.8958 C.3        1  LIG1   0.0400
      2 O1        -14.4600    18.0173   -15.7769 O.3        1  LIG1  -0.3200
      3 C2        -14.7610    16.7183   -15.5326 C.ar       1  LIG1   0.3500
      4 C3        -15.6716    16.0595   -16.3675 C.ar       1  LIG1  -0.2300
      5 C4        -16.3043    16.7930   -17.5220 C.3        1  LIG1   0.0600
      6 N1        -17.7441    16.5035   -17.5559 N.4        1  LIG1  -0.5100
      7 H1        -17.8849    15.5109   -17.6703 H          1  LIG1   0.4300
      8 H2        -18.1685    16.8062   -16.6920 H          1  LIG1   0.4300
      9 C5        -18.3608    17.2186   -18.6812 C.3        1  LIG1   0.0000
     10 C6        -19.8605    16.9170   -18.7166 C.3        1  LIG1  -0.1300
     11 H3        -20.0251    15.8649   -18.4841 H          1  LIG1   0.1000
     12 C7        -20.5799    17.7863   -17.6835 C.3        1  LIG1  -0.1800
     13 C8        -20.4093    17.2230   -20.1116 C.3        1  LIG1   0.1100
     14 N2        -21.8452    16.9343   -20.1455 N.pl3      1  LIG1  -0.4600
     15 C9        -22.4631    15.8259   -19.6325 C.2        1  LIG1  -0.0600
     16 C10       -23.7798    15.9646   -19.8789 C.2        1  LIG1  -0.0100
     17 N3        -23.9609    17.1261   -20.5250 N.2        1  LIG1  -0.4800
     18 C11       -22.8070    17.7147   -20.6836 C.2        1  LIG1   0.2100
     19 C12       -22.5838    19.0412   -21.3631 C.3        1  LIG1  -0.0800
     20 C13       -15.9845    14.7531   -16.1348 C.ar       1  LIG1   0.0300
     21 C14       -15.3703    14.1040   -15.0452 C.ar       1  LIG1  -0.1400
     22 C15       -15.6458    12.7600   -14.7481 C.ar       1  LIG1  -0.0800
     23 C16       -15.0329    12.1657   -13.6870 C.ar       1  LIG1  -0.1200
     24 C17       -14.1354    12.8745   -12.8915 C.ar       1  LIG1  -0.0600
     25 C18       -13.8453    14.1788   -13.1514 C.ar       1  LIG1  -0.1100
     26 C19       -14.4578    14.8264   -14.2382 C.ar       1  LIG1   0.1900
     27 N4        -14.1866    16.1056   -14.5200 N.ar       1  LIG1  -0.5200
     28 H4        -13.3741    19.6784   -15.2024 H          1  LIG1   0.0700
     29 H5        -13.9136    18.6194   -13.8775 H          1  LIG1   0.0700
     30 H6        -12.5755    18.1103   -14.9351 H          1  LIG1   0.1100
     31 H7        -16.1521    17.8652   -17.3984 H          1  LIG1   0.1400
     32 H8        -15.8458    16.4660   -18.4552 H          1  LIG1   0.1400
     33 H9        -18.2087    18.2907   -18.5577 H          1  LIG1   0.1400
     34 H10       -17.9023    16.8917   -19.6145 H          1  LIG1   0.1400
     35 H11       -21.6483    17.5715   -17.7088 H          1  LIG1   0.0900
     36 H12       -20.1889    17.5683   -16.6896 H          1  LIG1   0.0600
     37 H13       -20.4154    18.8384   -17.9160 H          1  LIG1   0.0800
     38 H14       -20.2447    18.2752   -20.3441 H          1  LIG1   0.1000
     39 H15       -19.8967    16.6038   -20.8478 H          1  LIG1   0.1000
     40 H16       -21.9864    14.9989   -19.1274 H          1  LIG1   0.1800
     41 H17       -24.5542    15.2635   -19.6045 H          1  LIG1   0.1700
     42 H18       -23.5400    19.4430   -21.6985 H          1  LIG1   0.0800
     43 H19       -22.1239    19.7364   -20.6607 H          1  LIG1   0.0700
     44 H20       -21.9263    18.9038   -22.2214 H          1  LIG1   0.0900
     45 H21       -16.6850    14.2297   -16.7685 H          1  LIG1   0.1600
     46 H22       -16.3404    12.2005   -15.3571 H          1  LIG1   0.1400
     47 H23       -15.2455    11.1317   -13.4592 H          1  LIG1   0.1400
     48 H24       -13.6625    12.3814   -12.0551 H          1  LIG1   0.1400
     49 H25       -13.1475    14.7141   -12.5247 H          1  LIG1   0.1400
@<TRIPOS>BOND
     1    1    2 1
     2    1   28 1
     3    1   29 1
     4    1   30 1
     5    2    3 1
     6    3   27 ar
     7    3    4 ar
     8    4    5 1
     9    4   20 ar
    10    5    6 1
    11    5   31 1
    12    5   32 1
    13    6    7 1
    14    6    8 1
    15    6    9 1
    16    9   10 1
    17    9   33 1
    18    9   34 1
    19   10   11 1
    20   10   12 1
    21   10   13 1
    22   12   35 1
    23   12   36 1
    24   12   37 1
    25   13   14 1
    26   13   38 1
    27   13   39 1
    28   14   18 1
    29   14   15 1
    30   15   16 2
    31   15   40 1
    32   16   17 1
    33   16   41 1
    34   17   18 2
    35   18   19 1
    36   19   42 1
    37   19   43 1
    38   19   44 1
    39   20   21 ar
    40   20   45 1
    41   21   26 ar
    42   21   22 ar
    43   22   23 ar
    44   22   46 1
    45   23   24 ar
    46   23   47 1
    47   24   25 ar
    48   24   48 1
    49   25   26 ar
    50   25   49 1
    51   26   27 ar
##########                 Name:     ZINC000162847633
##########          Protonation:                 none
##########               SMILES:   CCCC[C@@H](C[NH3+])NC(=O)C1=C(Cl)N(C2=CC=CC=C2)N=C1C
##########            Long Name:   NO_LONG_NAME
##########          FlexRecCode: 1
##########               Number:                 8977
##########   Ligand Source File: /nfs/db/export/3D/EG/ADRO/EGADRO.xcli.db2.gz
##########                 Rank:                    1
##########               Setnum:                   90
##########             Matchnum:                    1
##########                Cloud:                    1
##########        Electrostatic:           -40.791397
##########                 Gist:             0.000000
##########        Van der Waals:           -29.788031
##########  Ligand Polar Desolv:            13.525606
########## Ligand Apolar Desolv:            -3.948021
##########      Internal Energy:             0.000000
##########      Receptor Energy:             0.000000
########## Receptor Desolvation:             0.000000
########## Receptor Hydrophobic:             0.000000
##########         Total Energy:           -61.001846
##########        Ligand Charge:             1.000000
##########            Arbitrary:    +999.9990
##########        Ligand Energy:             0.000000

@<TRIPOS>MOLECULE
 ZINC000162847633      none
   47    48     0     0     0



@<TRIPOS>ATOM
      1 C1        -15.1242    19.2493   -23.2417 C.3        1  LIG1  -0.1600
      2 C2        -16.1773    18.3468   -22.5955 C.3        1  LIG1  -0.1300
      3 C3        -16.4269    18.8036   -21.1568 C.3        1  LIG1  -0.1200
      4 C4        -17.4799    17.9012   -20.5106 C.3        1  LIG1  -0.1300
      5 C5        -17.7295    18.3581   -19.0719 C.3        1  LIG1   0.1100
      6 H1        -17.7364    19.4474   -19.0326 H          1  LIG1   0.1200
      7 C6        -19.0802    17.8217   -18.5936 C.3        1  LIG1  -0.0200
      8 N1        -19.0709    16.3538   -18.6465 N.4        1  LIG1  -0.6400
      9 H2        -18.9064    16.0525   -19.5954 H          1  LIG1   0.4200
     10 H3        -18.3383    16.0003   -18.0496 H          1  LIG1   0.4400
     11 H4        -19.9617    16.0001   -18.3310 H          1  LIG1   0.4400
     12 N2        -16.6657    17.8449   -18.2050 N.am       1  LIG1  -0.7300
     13 C7        -16.6780    18.1230   -16.8864 C.2        1  LIG1   0.6100
     14 O1        -17.5723    18.8000   -16.4160 O.2        1  LIG1  -0.5300
     15 C8        -15.6086    17.6072   -16.0149 C.2        1  LIG1  -0.2900
     16 C9        -15.6094    16.3997   -15.3406 C.2        1  LIG1   0.1800
     17 Cl1       -16.8724    15.2090   -15.3648 Cl         1  LIG1   0.0300
     18 N3        -14.4493    16.3184   -14.6625 N.pl3      1  LIG1  -0.2800
     19 C10       -14.0496    15.2501   -13.8481 C.ar       1  LIG1   0.1100
     20 C11       -13.2225    15.4792   -12.7565 C.ar       1  LIG1  -0.1200
     21 C12       -12.8303    14.4245   -11.9558 C.ar       1  LIG1  -0.1000
     22 C13       -13.2599    13.1412   -12.2405 C.ar       1  LIG1  -0.1000
     23 C14       -14.0836    12.9100   -13.3268 C.ar       1  LIG1  -0.1000
     24 C15       -14.4843    13.9615   -14.1277 C.ar       1  LIG1  -0.0900
     25 N4        -13.7096    17.4804   -14.9087 N.2        1  LIG1  -0.2500
     26 C16       -14.3858    18.2506   -15.7157 C.2        1  LIG1   0.1200
     27 C17       -13.9448    19.5963   -16.2311 C.3        1  LIG1  -0.0800
     28 H5        -14.9464    18.9239   -24.2667 H          1  LIG1   0.0600
     29 H6        -15.4806    20.2793   -23.2442 H          1  LIG1   0.0500
     30 H7        -14.1954    19.1876   -22.6747 H          1  LIG1   0.0600
     31 H8        -17.1060    18.4086   -23.1626 H          1  LIG1   0.0700
     32 H9        -15.8209    17.3168   -22.5930 H          1  LIG1   0.0600
     33 H10       -15.4981    18.7420   -20.5898 H          1  LIG1   0.0700
     34 H11       -16.7834    19.8337   -21.1594 H          1  LIG1   0.0700
     35 H12       -18.4087    17.9628   -21.0778 H          1  LIG1   0.1000
     36 H13       -17.1234    16.8712   -20.5080 H          1  LIG1   0.0800
     37 H14       -19.2579    18.1472   -17.5685 H          1  LIG1   0.1500
     38 H15       -19.8717    18.2035   -19.2384 H          1  LIG1   0.1400
     39 H16       -15.9525    17.3049   -18.5802 H          1  LIG1   0.4200
     40 H17       -12.8861    16.4810   -12.5341 H          1  LIG1   0.1300
     41 H18       -12.1869    14.6020   -11.1066 H          1  LIG1   0.1400
     42 H19       -12.9512    12.3180   -11.6133 H          1  LIG1   0.1400
     43 H20       -14.4175    11.9067   -13.5467 H          1  LIG1   0.1400
     44 H21       -15.1276    13.7803   -14.9761 H          1  LIG1   0.1400
     45 H22       -12.9587    19.8329   -15.8317 H          1  LIG1   0.0900
     46 H23       -13.8996    19.5714   -17.3199 H          1  LIG1   0.0600
     47 H24       -14.6574    20.3580   -15.9145 H          1  LIG1   0.1000
@<TRIPOS>BOND
     1    1    2 1
     2    1   28 1
     3    1   29 1
     4    1   30 1
     5    2    3 1
     6    2   31 1
     7    2   32 1
     8    3    4 1
     9    3   33 1
    10    3   34 1
    11    4    5 1
    12    4   35 1
    13    4   36 1
    14    5    6 1
    15    5    7 1
    16    5   12 1
    17    7    8 1
    18    7   37 1
    19    7   38 1
    20    8    9 1
    21    8   10 1
    22    8   11 1
    23   12   13 am
    24   12   39 1
    25   13   14 2
    26   13   15 1
    27   15   26 1
    28   15   16 2
    29   16   17 1
    30   16   18 1
    31   18   19 1
    32   18   25 1
    33   19   24 ar
    34   19   20 ar
    35   20   21 ar
    36   20   40 1
    37   21   22 ar
    38   21   41 1
    39   22   23 ar
    40   22   42 1
    41   23   24 ar
    42   23   43 1
    43   24   44 1
    44   25   26 2
    45   26   27 1
    46   27   45 1
    47   27   46 1
    48   27   47 1
##########                 Name:     ZINC000520702665
##########          Protonation:                 none
##########               SMILES:   O=C(NC[C@@H](C1=CC=CC=C1)[NH+]1CCCC1)N1CCC(CCO)CC1
##########            Long Name:   NO_LONG_NAME
##########          FlexRecCode: 1
##########               Number:                 4852
##########   Ligand Source File: /nfs/db/export/3D/EF/ADRO/EFADRO.xbkw.db2.gz
##########                 Rank:                    1
##########               Setnum:                  349
##########             Matchnum:                    1
##########                Cloud:                    1
##########        Electrostatic:           -36.584850
##########                 Gist:             0.000000
##########        Van der Waals:           -32.030651
##########  Ligand Polar Desolv:            12.168246
########## Ligand Apolar Desolv:            -4.532651
##########      Internal Energy:             0.000000
##########      Receptor Energy:             0.000000
########## Receptor Desolvation:             0.000000
########## Receptor Hydrophobic:             0.000000
##########         Total Energy:           -60.979908
##########        Ligand Charge:             1.000000
##########            Arbitrary:    +999.9990
##########        Ligand Energy:             0.000000

@<TRIPOS>MOLECULE
 ZINC000520702665      none
   57    59     0     0     0



@<TRIPOS>ATOM
      1 O1        -15.6452    18.0878   -21.3772 O.2        1  LIG1  -0.5800
      2 C1        -16.6628    18.5061   -21.8948 C.2        1  LIG1   0.7100
      3 N1        -17.8604    18.0131   -21.5218 N.am       1  LIG1  -0.7400
      4 C2        -17.9362    16.9732   -20.4927 C.3        1  LIG1   0.1300
      5 C3        -18.7683    17.4818   -19.3139 C.3        1  LIG1   0.0700
      6 H1        -18.5274    18.5275   -19.1234 H          1  LIG1   0.1500
      7 C4        -20.2339    17.3558   -19.6421 C.ar       1  LIG1  -0.1400
      8 C5        -20.8944    18.3975   -20.2658 C.ar       1  LIG1  -0.1200
      9 C6        -22.2387    18.2820   -20.5668 C.ar       1  LIG1  -0.1000
     10 C7        -22.9222    17.1245   -20.2444 C.ar       1  LIG1  -0.0900
     11 C8        -22.2612    16.0823   -19.6214 C.ar       1  LIG1  -0.1000
     12 C9        -20.9160    16.1963   -19.3243 C.ar       1  LIG1  -0.0900
     13 N2        -18.4638    16.6836   -18.1188 N.4        1  LIG1  -0.3900
     14 H2        -18.6831    15.7125   -18.2834 H          1  LIG1   0.4300
     15 C10       -17.0309    16.8306   -17.7562 C.3        1  LIG1  -0.0100
     16 C11       -17.0028    16.4402   -16.2571 C.3        1  LIG1  -0.1400
     17 C12       -18.3253    17.0341   -15.7203 C.3        1  LIG1  -0.1400
     18 C13       -19.2289    17.1898   -16.9588 C.3        1  LIG1   0.0000
     19 N3        -16.5934    19.4667   -22.8376 N.am       1  LIG1  -0.6200
     20 C14       -17.6887    20.4318   -23.0048 C.3        1  LIG1   0.1100
     21 C15       -17.1118    21.8492   -22.9357 C.3        1  LIG1  -0.1300
     22 C16       -15.9880    21.9890   -23.9653 C.3        1  LIG1  -0.0800
     23 C17       -15.4325    23.4139   -23.9233 C.3        1  LIG1  -0.1200
     24 C18       -14.6948    23.7125   -25.2300 C.3        1  LIG1   0.0700
     25 O2        -15.6009    23.5867   -26.3279 O.3        1  LIG1  -0.5800
     26 C19       -14.8698    20.9960   -23.6405 C.3        1  LIG1  -0.1400
     27 C20       -15.4186    19.5726   -23.7135 C.3        1  LIG1   0.1300
     28 H3        -18.6723    18.3469   -21.9346 H          1  LIG1   0.4000
     29 H4        -18.4047    16.0820   -20.9106 H          1  LIG1   0.0900
     30 H5        -16.9312    16.7281   -20.1490 H          1  LIG1   0.0900
     31 H6        -20.3605    19.3018   -20.5177 H          1  LIG1   0.1200
     32 H7        -22.7550    19.0962   -21.0535 H          1  LIG1   0.1400
     33 H8        -23.9726    17.0345   -20.4789 H          1  LIG1   0.1400
     34 H9        -22.7953    15.1781   -19.3691 H          1  LIG1   0.1400
     35 H10       -20.3996    15.3821   -18.8376 H          1  LIG1   0.1300
     36 H11       -16.4139    16.1500   -18.3427 H          1  LIG1   0.1400
     37 H12       -16.7037    17.8616   -17.8915 H          1  LIG1   0.1400
     38 H13       -16.9913    15.3565   -16.1409 H          1  LIG1   0.1000
     39 H14       -16.1460    16.8919   -15.7569 H          1  LIG1   0.1200
     40 H15       -18.7824    16.3525   -15.0030 H          1  LIG1   0.1100
     41 H16       -18.1443    18.0047   -15.2587 H          1  LIG1   0.1000
     42 H17       -19.4762    18.2407   -17.1082 H          1  LIG1   0.1300
     43 H18       -20.1401    16.6059   -16.8293 H          1  LIG1   0.1300
     44 H19       -18.1663    20.2784   -23.9726 H          1  LIG1   0.0800
     45 H20       -18.4204    20.2959   -22.2084 H          1  LIG1   0.0700
     46 H21       -17.8972    22.5727   -23.1541 H          1  LIG1   0.0800
     47 H22       -16.7150    22.0322   -21.9373 H          1  LIG1   0.0700
     48 H23       -16.3800    21.7813   -24.9611 H          1  LIG1   0.0800
     49 H24       -16.2534    24.1204   -23.7998 H          1  LIG1   0.0700
     50 H25       -14.7414    23.5098   -23.0858 H          1  LIG1   0.0700
     51 H26       -14.2992    24.7278   -25.2001 H          1  LIG1   0.0500
     52 H27       -13.8740    23.0061   -25.3535 H          1  LIG1   0.0500
     53 H28       -15.2005    23.7625   -27.1903 H          1  LIG1   0.3800
     54 H29       -14.0596    21.1122   -24.3602 H          1  LIG1   0.0800
     55 H30       -14.4943    21.1871   -22.6353 H          1  LIG1   0.0700
     56 H31       -14.6532    18.8686   -23.3870 H          1  LIG1   0.1000
     57 H32       -15.7128    19.3464   -24.7384 H          1  LIG1   0.0700
@<TRIPOS>BOND
     1    1    2 2
     2    2    3 am
     3    2   19 am
     4    3    4 1
     5    3   28 1
     6    4    5 1
     7    4   29 1
     8    4   30 1
     9    5    6 1
    10    5    7 1
    11    5   13 1
    12    7   12 ar
    13    7    8 ar
    14    8    9 ar
    15    8   31 1
    16    9   10 ar
    17    9   32 1
    18   10   11 ar
    19   10   33 1
    20   11   12 ar
    21   11   34 1
    22   12   35 1
    23   13   14 1
    24   13   18 1
    25   13   15 1
    26   15   16 1
    27   15   36 1
    28   15   37 1
    29   16   17 1
    30   16   38 1
    31   16   39 1
    32   17   18 1
    33   17   40 1
    34   17   41 1
    35   18   42 1
    36   18   43 1
    37   19   27 1
    38   19   20 1
    39   20   21 1
    40   20   44 1
    41   20   45 1
    42   21   22 1
    43   21   46 1
    44   21   47 1
    45   22   23 1
    46   22   26 1
    47   22   48 1
    48   23   24 1
    49   23   49 1
    50   23   50 1
    51   24   25 1
    52   24   51 1
    53   24   52 1
    54   25   53 1
    55   26   27 1
    56   26   54 1
    57   26   55 1
    58   27   56 1
    59   27   57 1
##########                 Name:     ZINC000424406638
##########          Protonation:                 none
##########               SMILES:   CCCC1=NC2=NC=NN2C(N2C[C@@H](C3=CN(C)N=C3)[C@H]([NH3+])C2)=C1
##########            Long Name:   NO_LONG_NAME
##########          FlexRecCode: 1
##########               Number:                 1943
##########   Ligand Source File: /nfs/db/export/3D/EC/ADRO/ECADRO.xbia.db2.gz
##########                 Rank:                    1
##########               Setnum:                   99
##########             Matchnum:                    1
##########                Cloud:                    1
##########        Electrostatic:           -47.806782
##########                 Gist:             0.000000
##########        Van der Waals:           -31.037704
##########  Ligand Polar Desolv:            22.734150
########## Ligand Apolar Desolv:            -4.893697
##########      Internal Energy:             0.000000
##########      Receptor Energy:             0.000000
########## Receptor Desolvation:             0.000000
########## Receptor Hydrophobic:             0.000000
##########         Total Energy:           -61.004028
##########        Ligand Charge:             1.000000
##########            Arbitrary:    +999.9990
##########        Ligand Energy:             0.000000

@<TRIPOS>MOLECULE
 ZINC000424406638      none
   47    50     0     0     0



@<TRIPOS>ATOM
      1 C1        -12.1759    13.8991   -12.1408 C.3        1  LIG1  -0.1600
      2 C2        -12.4926    15.1972   -12.8864 C.3        1  LIG1  -0.1200
      3 C3        -13.7033    14.9803   -13.7964 C.3        1  LIG1  -0.0800
      4 C4        -14.0151    16.2588   -14.5307 C.2        1  LIG1   0.2700
      5 N1        -13.2750    17.3281   -14.3254 N.2        1  LIG1  -0.4800
      6 C5        -13.5259    18.4779   -14.9617 C.2        1  LIG1   0.4900
      7 N2        -12.9380    19.6688   -14.9258 N.2        1  LIG1  -0.5300
      8 C6        -13.5625    20.5021   -15.7487 C.2        1  LIG1   0.2700
      9 N3        -14.5584    19.8810   -16.3319 N.2        1  LIG1  -0.3700
     10 N4        -14.5642    18.5675   -15.8455 N.pl3      1  LIG1  -0.3600
     11 C7        -15.3555    17.4817   -16.0870 C.2        1  LIG1   0.5000
     12 N5        -16.4046    17.5614   -16.9758 N.pl3      1  LIG1  -0.6100
     13 C8        -16.7875    18.7546   -17.7446 C.3        1  LIG1   0.1200
     14 C9        -17.9957    18.3657   -18.6225 C.3        1  LIG1  -0.0100
     15 H1        -18.9307    18.6475   -18.1384 H          1  LIG1   0.1200
     16 C10       -17.8907    19.0003   -19.9853 C.2        1  LIG1  -0.2900
     17 C11       -16.7437    19.3045   -20.6355 C.2        1  LIG1   0.0900
     18 N6        -17.0769    19.8562   -21.8212 N.pl3      1  LIG1  -0.3600
     19 C12       -16.1419    20.3327   -22.8433 C.3        1  LIG1   0.0900
     20 N7        -18.4750    19.8922   -21.9023 N.2        1  LIG1  -0.2700
     21 C13       -18.9616    19.3735   -20.8040 C.2        1  LIG1   0.0600
     22 C14       -17.8715    16.8222   -18.7205 C.3        1  LIG1   0.0100
     23 H2        -17.1627    16.5357   -19.4973 H          1  LIG1   0.1600
     24 N8        -19.1827    16.2022   -18.9534 N.4        1  LIG1  -0.6200
     25 H3        -19.5710    16.5510   -19.8169 H          1  LIG1   0.4400
     26 H4        -19.0755    15.2008   -19.0131 H          1  LIG1   0.4400
     27 H5        -19.8025    16.4292   -18.1901 H          1  LIG1   0.4400
     28 C15       -17.3256    16.4624   -17.3185 C.3        1  LIG1   0.1000
     29 C16       -15.0807    16.2999   -15.4263 C.2        1  LIG1  -0.3000
     30 H6        -11.3134    14.0536   -11.4926 H          1  LIG1   0.0500
     31 H7        -13.0360    13.6073   -11.5380 H          1  LIG1   0.0600
     32 H8        -11.9529    13.1117   -12.8608 H          1  LIG1   0.0500
     33 H9        -12.7157    15.9846   -12.1664 H          1  LIG1   0.0700
     34 H10       -11.6325    15.4889   -13.4892 H          1  LIG1   0.0700
     35 H11       -13.4804    14.1928   -14.5162 H          1  LIG1   0.1000
     36 H12       -14.5632    14.6886   -13.1935 H          1  LIG1   0.1000
     37 H13       -13.2917    21.5347   -15.9123 H          1  LIG1   0.2300
     38 H14       -17.0671    19.5595   -17.0648 H          1  LIG1   0.1000
     39 H15       -15.9572    19.0711   -18.3758 H          1  LIG1   0.1000
     40 H16       -15.7411    19.1362   -20.2710 H          1  LIG1   0.1800
     41 H17       -16.7010    20.7272   -23.6917 H          1  LIG1   0.0900
     42 H18       -15.5150    21.1195   -22.4237 H          1  LIG1   0.1000
     43 H19       -15.5137    19.5060   -23.1749 H          1  LIG1   0.1000
     44 H20       -20.0091    19.2602   -20.5672 H          1  LIG1   0.1800
     45 H21       -16.7925    15.5123   -17.3514 H          1  LIG1   0.1200
     46 H22       -18.1393    16.4168   -16.5947 H          1  LIG1   0.0900
     47 H23       -15.6880    15.4231   -15.5961 H          1  LIG1   0.1700
@<TRIPOS>BOND
     1    1    2 1
     2    1   30 1
     3    1   31 1
     4    1   32 1
     5    2    3 1
     6    2   33 1
     7    2   34 1
     8    3    4 1
     9    3   35 1
    10    3   36 1
    11    4   29 1
    12    4    5 2
    13    5    6 1
    14    6   10 1
    15    6    7 2
    16    7    8 1
    17    8    9 2
    18    8   37 1
    19    9   10 1
    20   10   11 1
    21   11   12 1
    22   11   29 2
    23   12   28 1
    24   12   13 1
    25   13   14 1
    26   13   38 1
    27   13   39 1
    28   14   15 1
    29   14   16 1
    30   14   22 1
    31   16   21 1
    32   16   17 2
    33   17   18 1
    34   17   40 1
    35   18   19 1
    36   18   20 1
    37   19   41 1
    38   19   42 1
    39   19   43 1
    40   20   21 2
    41   21   44 1
    42   22   23 1
    43   22   24 1
    44   22   28 1
    45   24   25 1
    46   24   26 1
    47   24   27 1
    48   28   45 1
    49   28   46 1
    50   29   47 1
##########                 Name:     ZINC000488408504
##########          Protonation:                 none
##########               SMILES:   C[C@@H](CC1CCOCC1)[NH2+][C@@H](C(N)=O)C1=CC=CC(Br)=C1
##########            Long Name:   NO_LONG_NAME
##########          FlexRecCode: 1
##########               Number:                 6813
##########   Ligand Source File: /nfs/db/export/3D/FF/ADRO/FFADRO.xapg.db2.gz
##########                 Rank:                    1
##########               Setnum:                  109
##########             Matchnum:                    1
##########                Cloud:                    1
##########        Electrostatic:           -48.930485
##########                 Gist:             0.000000
##########        Van der Waals:           -25.699459
##########  Ligand Polar Desolv:            16.026041
########## Ligand Apolar Desolv:            -2.378288
##########      Internal Energy:             0.000000
##########      Receptor Energy:             0.000000
########## Receptor Desolvation:             0.000000
########## Receptor Hydrophobic:             0.000000
##########         Total Energy:           -60.982193
##########        Ligand Charge:             1.000000
##########            Arbitrary:    +999.9990
##########        Ligand Energy:             0.000000

@<TRIPOS>MOLECULE
 ZINC000488408504      none
   45    46     0     0     0



@<TRIPOS>ATOM
      1 C1        -16.5232    18.0950   -18.4070 C.3        1  LIG1  -0.1800
      2 C2        -17.6667    17.0960   -18.2183 C.3        1  LIG1   0.0100
      3 H1        -18.4240    17.5298   -17.5652 H          1  LIG1   0.1600
      4 C3        -18.2903    16.7720   -19.5773 C.3        1  LIG1  -0.1400
      5 C4        -19.2488    17.8947   -19.9793 C.3        1  LIG1  -0.1000
      6 C5        -19.4939    17.8427   -21.4905 C.3        1  LIG1  -0.1600
      7 C6        -20.5141    18.9187   -21.8715 C.3        1  LIG1   0.0600
      8 O1        -21.7212    18.7108   -21.1353 O.3        1  LIG1  -0.3800
      9 C7        -21.5618    18.7953   -19.7177 C.3        1  LIG1   0.0600
     10 C8        -20.5837    17.7145   -19.2501 C.3        1  LIG1  -0.1500
     11 N1        -17.1453    15.8636   -17.6124 N.4        1  LIG1  -0.4900
     12 H2        -17.8995    15.2048   -17.4880 H          1  LIG1   0.4300
     13 H3        -16.4444    15.4621   -18.2168 H          1  LIG1   0.4300
     14 C9        -16.5467    16.1747   -16.3074 C.3        1  LIG1   0.0600
     15 H4        -15.7321    16.8864   -16.4418 H          1  LIG1   0.1800
     16 C10       -17.5938    16.7744   -15.4046 C.2        1  LIG1   0.5200
     17 N2        -18.7006    16.0701   -15.0955 N.am       1  LIG1  -0.8200
     18 O2        -17.4406    17.8908   -14.9562 O.2        1  LIG1  -0.5200
     19 C11       -16.0119    14.9104   -15.6858 C.ar       1  LIG1  -0.1500
     20 C12       -16.1339    13.7066   -16.3540 C.ar       1  LIG1  -0.1000
     21 C13       -15.6434    12.5463   -15.7842 C.ar       1  LIG1  -0.0900
     22 C14       -15.0309    12.5896   -14.5461 C.ar       1  LIG1  -0.0600
     23 C15       -14.9085    13.7943   -13.8769 C.ar       1  LIG1  -0.0800
     24 Br1       -14.0706    13.8542   -12.1828 Br         1  LIG1  -0.0100
     25 C16       -15.3943    14.9556   -14.4498 C.ar       1  LIG1  -0.0600
     26 H5        -15.7659    17.6612   -19.0601 H          1  LIG1   0.0900
     27 H6        -16.9101    19.0095   -18.8564 H          1  LIG1   0.1100
     28 H7        -16.0789    18.3258   -17.4388 H          1  LIG1   0.0800
     29 H8        -17.5032    16.6809   -20.3258 H          1  LIG1   0.1200
     30 H9        -18.8388    15.8325   -19.5107 H          1  LIG1   0.0900
     31 H10       -18.8145    18.8582   -19.7120 H          1  LIG1   0.0600
     32 H11       -18.5577    18.0253   -22.0179 H          1  LIG1   0.0900
     33 H12       -19.8811    16.8609   -21.7631 H          1  LIG1   0.0800
     34 H13       -20.1094    19.9030   -21.6358 H          1  LIG1   0.0500
     35 H14       -20.7246    18.8582   -22.9392 H          1  LIG1   0.1000
     36 H15       -21.1708    19.7780   -19.4537 H          1  LIG1   0.0500
     37 H16       -22.5271    18.6461   -19.2338 H          1  LIG1   0.1000
     38 H17       -20.9930    16.7301   -19.4774 H          1  LIG1   0.0800
     39 H18       -20.4269    17.8053   -18.1753 H          1  LIG1   0.0800
     40 H19       -18.8231    15.1773   -15.4541 H          1  LIG1   0.4100
     41 H20       -19.3745    16.4563   -14.5144 H          1  LIG1   0.4300
     42 H21       -16.6128    13.6723   -17.3214 H          1  LIG1   0.1300
     43 H22       -15.7393    11.6059   -16.3065 H          1  LIG1   0.1500
     44 H23       -14.6481    11.6832   -14.1009 H          1  LIG1   0.1500
     45 H24       -15.2987    15.8962   -13.9279 H          1  LIG1   0.1500
@<TRIPOS>BOND
     1    1    2 1
     2    1   26 1
     3    1   27 1
     4    1   28 1
     5    2    3 1
     6    2    4 1
     7    2   11 1
     8    4    5 1
     9    4   29 1
    10    4   30 1
    11    5   10 1
    12    5    6 1
    13    5   31 1
    14    6    7 1
    15    6   32 1
    16    6   33 1
    17    7    8 1
    18    7   34 1
    19    7   35 1
    20    8    9 1
    21    9   10 1
    22    9   36 1
    23    9   37 1
    24   10   38 1
    25   10   39 1
    26   11   12 1
    27   11   13 1
    28   11   14 1
    29   14   15 1
    30   14   16 1
    31   14   19 1
    32   16   17 am
    33   16   18 2
    34   17   40 1
    35   17   41 1
    36   19   25 ar
    37   19   20 ar
    38   20   21 ar
    39   20   42 1
    40   21   22 ar
    41   21   43 1
    42   22   23 ar
    43   22   44 1
    44   23   24 1
    45   23   25 ar
    46   25   45 1
##########                 Name:     ZINC000614859831
##########          Protonation:                 none
##########               SMILES:   C[NH+](C)C[C@@H](CO)NC(=O)CC1=COC2=C1C1=CC=CC=C1C=C2
##########            Long Name:   NO_LONG_NAME
##########          FlexRecCode: 1
##########               Number:                 3413
##########   Ligand Source File: /nfs/db/export/3D/EE/ADRO/EEADRO.xahm.db2.gz
##########                 Rank:                    1
##########               Setnum:                  102
##########             Matchnum:                    1
##########                Cloud:                    1
##########        Electrostatic:           -39.108063
##########                 Gist:             0.000000
##########        Van der Waals:           -35.734802
##########  Ligand Polar Desolv:            18.454563
########## Ligand Apolar Desolv:            -4.603927
##########      Internal Energy:             0.000000
##########      Receptor Energy:             0.000000
########## Receptor Desolvation:             0.000000
########## Receptor Hydrophobic:             0.000000
##########         Total Energy:           -60.992229
##########        Ligand Charge:             1.000000
##########            Arbitrary:    +999.9990
##########        Ligand Energy:             0.000000

@<TRIPOS>MOLECULE
 ZINC000614859831      none
   47    49     0     0     0



@<TRIPOS>ATOM
      1 C1        -20.0569    16.7513   -18.6183 C.3        1  LIG1  -0.0500
      2 N1        -18.5958    16.6235   -18.5366 N.4        1  LIG1  -0.3900
      3 H1        -18.3540    16.0128   -17.7707 H          1  LIG1   0.4200
      4 C2        -18.0824    16.0607   -19.7926 C.3        1  LIG1  -0.0500
      5 C3        -18.0001    17.9478   -18.3138 C.3        1  LIG1  -0.0200
      6 C4        -16.4783    17.8145   -18.2284 C.3        1  LIG1   0.1300
      7 H2        -16.0628    17.7443   -19.2337 H          1  LIG1   0.1200
      8 C5        -15.8978    19.0407   -17.5210 C.3        1  LIG1   0.0600
      9 O1        -15.8131    20.1277   -18.4448 O.3        1  LIG1  -0.5800
     10 N2        -16.1353    16.6070   -17.4730 N.am       1  LIG1  -0.7500
     11 C6        -16.5461    16.4714   -16.1966 C.2        1  LIG1   0.5200
     12 O2        -17.1996    17.3490   -15.6734 O.2        1  LIG1  -0.5000
     13 C7        -16.1934    15.2294   -15.4194 C.3        1  LIG1  -0.0700
     14 C8        -14.8804    15.4368   -14.7096 C.2        1  LIG1  -0.1700
     15 C9        -14.1155    16.5410   -14.7333 C.2        1  LIG1   0.0200
     16 O3        -13.0190    16.3537   -13.9803 O.3        1  LIG1  -0.1700
     17 C10       -13.0168    15.1219   -13.4315 C.ar       1  LIG1   0.0500
     18 C11       -14.1851    14.4798   -13.8515 C.ar       1  LIG1  -0.1100
     19 C12       -14.4504    13.1174   -13.4071 C.ar       1  LIG1   0.0000
     20 C13       -15.6015    12.4244   -13.7948 C.ar       1  LIG1  -0.1100
     21 C14       -15.8048    11.1502   -13.3525 C.ar       1  LIG1  -0.1100
     22 C15       -14.8809    10.5279   -12.5188 C.ar       1  LIG1  -0.1200
     23 C16       -13.7489    11.1743   -12.1220 C.ar       1  LIG1  -0.0900
     24 C17       -13.5078    12.4863   -12.5582 C.ar       1  LIG1  -0.0600
     25 C18       -12.3488    13.1855   -12.1689 C.ar       1  LIG1  -0.0800
     26 C19       -12.1212    14.4545   -12.5877 C.ar       1  LIG1  -0.0900
     27 H3        -20.3183    17.4110   -19.4457 H          1  LIG1   0.1300
     28 H4        -20.4989    15.7688   -18.7835 H          1  LIG1   0.1300
     29 H5        -20.4379    17.1690   -17.6863 H          1  LIG1   0.1200
     30 H6        -16.9983    15.9659   -19.7319 H          1  LIG1   0.1300
     31 H7        -18.5245    15.0782   -19.9580 H          1  LIG1   0.1200
     32 H8        -18.3437    16.7206   -20.6199 H          1  LIG1   0.1300
     33 H9        -18.2613    18.6075   -19.1411 H          1  LIG1   0.1500
     34 H10       -18.3811    18.3653   -17.3819 H          1  LIG1   0.1500
     35 H11       -16.5445    19.3204   -16.6893 H          1  LIG1   0.0700
     36 H12       -14.9024    18.8056   -17.1443 H          1  LIG1   0.0700
     37 H13       -16.6641    20.3915   -18.8210 H          1  LIG1   0.4000
     38 H14       -15.6127    15.9052   -17.8914 H          1  LIG1   0.4000
     39 H15       -16.9743    15.0251   -14.6868 H          1  LIG1   0.1100
     40 H16       -16.1072    14.3851   -16.1034 H          1  LIG1   0.1100
     41 H17       -14.3478    17.4449   -15.2769 H          1  LIG1   0.2100
     42 H18       -16.3266    12.8963   -14.4414 H          1  LIG1   0.1200
     43 H19       -16.6949    10.6174   -13.6532 H          1  LIG1   0.1200
     44 H20       -15.0636     9.5184   -12.1811 H          1  LIG1   0.1300
     45 H21       -13.0402    10.6792   -11.4745 H          1  LIG1   0.1300
     46 H22       -11.6310    12.7038   -11.5215 H          1  LIG1   0.1400
     47 H23       -11.2216    14.9603   -12.2695 H          1  LIG1   0.1400
@<TRIPOS>BOND
     1    1    2 1
     2    1   27 1
     3    1   28 1
     4    1   29 1
     5    2    3 1
     6    2    4 1
     7    2    5 1
     8    4   30 1
     9    4   31 1
    10    4   32 1
    11    5    6 1
    12    5   33 1
    13    5   34 1
    14    6    7 1
    15    6    8 1
    16    6   10 1
    17    8    9 1
    18    8   35 1
    19    8   36 1
    20    9   37 1
    21   10   11 am
    22   10   38 1
    23   11   12 2
    24   11   13 1
    25   13   14 1
    26   13   39 1
    27   13   40 1
    28   14   18 1
    29   14   15 2
    30   15   16 1
    31   15   41 1
    32   16   17 1
    33   17   26 ar
    34   17   18 ar
    35   18   19 ar
    36   19   24 ar
    37   19   20 ar
    38   20   21 ar
    39   20   42 1
    40   21   22 ar
    41   21   43 1
    42   22   23 ar
    43   22   44 1
    44   23   24 ar
    45   23   45 1
    46   24   25 ar
    47   25   26 ar
    48   25   46 1
    49   26   47 1
##########                 Name:     ZINC000355163361
##########          Protonation:                 none
##########               SMILES:   CCOC(=O)C1=COC(C[N@@H+](CCO)C2CCC(CC)CC2)=C1
##########            Long Name:   NO_LONG_NAME
##########          FlexRecCode: 1
##########               Number:                10785
##########   Ligand Source File: /nfs/db/export/3D/DG/ADMO/DGADMO.xaun.db2.gz
##########                 Rank:                    1
##########               Setnum:                  450
##########             Matchnum:                    1
##########                Cloud:                    1
##########        Electrostatic:           -42.195843
##########                 Gist:             0.000000
##########        Van der Waals:           -29.262884
##########  Ligand Polar Desolv:            14.563245
########## Ligand Apolar Desolv:            -4.105652
##########      Internal Energy:             0.000000
##########      Receptor Energy:             0.000000
########## Receptor Desolvation:             0.000000
########## Receptor Hydrophobic:             0.000000
##########         Total Energy:           -61.001133
##########        Ligand Charge:             1.000000
##########            Arbitrary:    +999.9990
##########        Ligand Energy:             0.000000

@<TRIPOS>MOLECULE
 ZINC000355163361      none
   53    54     0     0     0



@<TRIPOS>ATOM
      1 C1        -12.9760    15.0754   -11.0114 C.3        1  LIG1  -0.1600
      2 C2        -12.5366    14.2269   -12.2062 C.3        1  LIG1   0.0700
      3 O1        -13.6121    14.1682   -13.1800 O.3        1  LIG1  -0.3600
      4 C3        -13.6318    15.1255   -14.1283 C.2        1  LIG1   0.5300
      5 O2        -12.7736    15.9860   -14.1411 O.2        1  LIG1  -0.4900
      6 C4        -14.6931    15.1291   -15.1488 C.2        1  LIG1  -0.2300
      7 C5        -15.7255    14.2443   -15.2690 C.2        1  LIG1   0.1000
      8 O3        -16.4638    14.5989   -16.3248 O.3        1  LIG1  -0.1600
      9 C6        -15.9597    15.6932   -16.9164 C.2        1  LIG1  -0.1000
     10 C7        -16.5343    16.3715   -18.1332 C.3        1  LIG1   0.0800
     11 N1        -17.9907    16.4922   -17.9846 N.4        1  LIG1  -0.3800
     12 H1        -18.3575    15.6488   -17.5696 H          1  LIG1   0.4300
     13 C8        -18.3014    17.6385   -17.1201 C.3        1  LIG1  -0.0100
     14 C9        -18.1184    17.2369   -15.6552 C.3        1  LIG1   0.0500
     15 O4        -18.9977    16.1541   -15.3447 O.3        1  LIG1  -0.5800
     16 C10       -18.6026    16.6944   -19.3047 C.3        1  LIG1   0.0200
     17 C11       -20.0868    16.3285   -19.2404 C.3        1  LIG1  -0.1500
     18 C12       -20.7241    16.5392   -20.6154 C.3        1  LIG1  -0.1100
     19 C13       -20.5777    18.0057   -21.0259 C.3        1  LIG1  -0.1000
     20 C14       -21.2783    18.8957   -19.9973 C.3        1  LIG1  -0.1200
     21 C15       -22.7625    18.5297   -19.9330 C.3        1  LIG1  -0.1600
     22 C16       -19.0935    18.3717   -21.0903 C.3        1  LIG1  -0.1100
     23 C17       -18.4562    18.1610   -19.7154 C.3        1  LIG1  -0.1400
     24 C18       -14.8663    16.0905   -16.2480 C.2        1  LIG1  -0.0900
     25 H2        -12.1687    15.1195   -10.2805 H          1  LIG1   0.0700
     26 H3        -13.2150    16.0835   -11.3501 H          1  LIG1   0.0700
     27 H4        -13.8576    14.6278   -10.5525 H          1  LIG1   0.0900
     28 H5        -11.6550    14.6744   -12.6651 H          1  LIG1   0.0800
     29 H6        -12.2976    13.2187   -11.8677 H          1  LIG1   0.0800
     30 H7        -15.9136    13.4011   -14.6210 H          1  LIG1   0.2400
     31 H8        -16.0961    17.3641   -18.2368 H          1  LIG1   0.1500
     32 H9        -16.3074    15.7798   -19.0202 H          1  LIG1   0.1600
     33 H10       -17.6305    18.4644   -17.3568 H          1  LIG1   0.1400
     34 H11       -19.3329    17.9494   -17.2855 H          1  LIG1   0.1500
     35 H12       -17.0867    16.9261   -15.4897 H          1  LIG1   0.1000
     36 H13       -18.3489    18.0875   -15.0137 H          1  LIG1   0.0700
     37 H14       -18.8495    15.3614   -15.8784 H          1  LIG1   0.4100
     38 H15       -18.1035    16.0604   -20.0376 H          1  LIG1   0.1400
     39 H16       -20.1910    15.2836   -18.9479 H          1  LIG1   0.0900
     40 H17       -20.5858    16.9625   -18.5076 H          1  LIG1   0.0900
     41 H18       -20.2249    15.9051   -21.3480 H          1  LIG1   0.0800
     42 H19       -21.7813    16.2785   -20.5694 H          1  LIG1   0.0900
     43 H20       -21.0318    18.1559   -22.0054 H          1  LIG1   0.0900
     44 H21       -20.8243    18.7457   -19.0178 H          1  LIG1   0.0700
     45 H22       -21.1742    19.9406   -20.2898 H          1  LIG1   0.0600
     46 H23       -23.2616    19.1636   -19.2002 H          1  LIG1   0.0600
     47 H24       -23.2165    18.6798   -20.9125 H          1  LIG1   0.0600
     48 H25       -22.8667    17.4848   -19.6405 H          1  LIG1   0.0600
     49 H26       -18.5944    17.7376   -21.8230 H          1  LIG1   0.0700
     50 H27       -18.9893    19.4165   -21.3827 H          1  LIG1   0.0900
     51 H28       -18.9553    18.7950   -18.9826 H          1  LIG1   0.0900
     52 H29       -17.3989    18.4218   -19.7612 H          1  LIG1   0.0900
     53 H30       -14.2378    16.9388   -16.4752 H          1  LIG1   0.1800
@<TRIPOS>BOND
     1    1    2 1
     2    1   25 1
     3    1   26 1
     4    1   27 1
     5    2    3 1
     6    2   28 1
     7    2   29 1
     8    3    4 1
     9    4    5 2
    10    4    6 1
    11    6   24 1
    12    6    7 2
    13    7    8 1
    14    7   30 1
    15    8    9 1
    16    9   10 1
    17    9   24 2
    18   10   11 1
    19   10   31 1
    20   10   32 1
    21   11   12 1
    22   11   13 1
    23   11   16 1
    24   13   14 1
    25   13   33 1
    26   13   34 1
    27   14   15 1
    28   14   35 1
    29   14   36 1
    30   15   37 1
    31   16   23 1
    32   16   17 1
    33   16   38 1
    34   17   18 1
    35   17   39 1
    36   17   40 1
    37   18   19 1
    38   18   41 1
    39   18   42 1
    40   19   20 1
    41   19   22 1
    42   19   43 1
    43   20   21 1
    44   20   44 1
    45   20   45 1
    46   21   46 1
    47   21   47 1
    48   21   48 1
    49   22   23 1
    50   22   49 1
    51   22   50 1
    52   23   51 1
    53   23   52 1
    54   24   53 1
##########                 Name:     ZINC000569143155
##########          Protonation:                 none
##########               SMILES:   COC(=O)C1=CC=CC(C[N@H+]2CC[C@]3(CC[C@@H](C)C3)C2)=C1C#N
##########            Long Name:   NO_LONG_NAME
##########          FlexRecCode: 1
##########               Number:                12936
##########   Ligand Source File: /nfs/db/export/3D/DG/EDMO/DGEDMO.xbi.db2.gz
##########                 Rank:                    1
##########               Setnum:                   11
##########             Matchnum:                    1
##########                Cloud:                    1
##########        Electrostatic:           -40.163235
##########                 Gist:             0.000000
##########        Van der Waals:           -30.899515
##########  Ligand Polar Desolv:            16.388363
########## Ligand Apolar Desolv:            -6.327847
##########      Internal Energy:             0.000000
##########      Receptor Energy:             0.000000
########## Receptor Desolvation:             0.000000
########## Receptor Hydrophobic:             0.000000
##########         Total Energy:           -61.002235
##########        Ligand Charge:             1.000000
##########            Arbitrary:    +999.9990
##########        Ligand Energy:             0.000000

@<TRIPOS>MOLECULE
 ZINC000569143155      none
   48    50     0     0     0



@<TRIPOS>ATOM
      1 C1        -11.7887    21.1842   -15.9113 C.3        1  LIG1   0.0400
      2 O1        -12.5745    19.9652   -15.8429 O.3        1  LIG1  -0.3500
      3 C2        -13.7574    19.9631   -16.4878 C.2        1  LIG1   0.5000
      4 O2        -14.1223    20.9525   -17.0907 O.2        1  LIG1  -0.4900
      5 C3        -14.6105    18.7578   -16.4615 C.ar       1  LIG1  -0.0700
      6 C4        -14.5820    17.9023   -15.3623 C.ar       1  LIG1  -0.0300
      7 C5        -15.3823    16.7765   -15.3425 C.ar       1  LIG1  -0.0900
      8 C6        -16.2157    16.4897   -16.4096 C.ar       1  LIG1  -0.0600
      9 C7        -16.2581    17.3256   -17.5088 C.ar       1  LIG1  -0.1200
     10 C8        -17.1695    17.0043   -18.6652 C.3        1  LIG1   0.0400
     11 N1        -18.4897    16.6125   -18.1539 N.4        1  LIG1  -0.4000
     12 H1        -18.4069    15.7991   -17.5627 H          1  LIG1   0.4200
     13 C9        -19.1000    17.7363   -17.3968 C.3        1  LIG1  -0.0100
     14 C10       -20.6166    17.4130   -17.4371 C.3        1  LIG1  -0.1300
     15 C11       -20.7986    16.8180   -18.8436 C.3        1  LIG1  -0.0800
     16 C12       -21.7993    15.6549   -18.8119 C.3        1  LIG1  -0.1200
     17 C13       -23.1353    16.2972   -19.2675 C.3        1  LIG1  -0.1200
     18 C14       -22.6804    17.3060   -20.3523 C.3        1  LIG1  -0.1000
     19 H2        -22.5218    16.7977   -21.3033 H          1  LIG1   0.0800
     20 C15       -23.7127    18.4243   -20.5100 C.3        1  LIG1  -0.1500
     21 C16       -21.3475    17.8694   -19.8115 C.3        1  LIG1  -0.1100
     22 C17       -19.4112    16.3338   -19.2798 C.3        1  LIG1   0.0000
     23 C18       -15.4628    18.4687   -17.5454 C.ar       1  LIG1   0.0600
     24 C19       -15.5033    19.3387   -18.6821 C.1        1  LIG1   0.2100
     25 N2        -15.5356    20.0290   -19.5839 N.1        1  LIG1  -0.3400
     26 H3        -10.8628    21.0515   -15.3516 H          1  LIG1   0.0700
     27 H4        -11.5552    21.4081   -16.9522 H          1  LIG1   0.1100
     28 H5        -12.3581    22.0082   -15.4813 H          1  LIG1   0.0700
     29 H6        -13.9341    18.1192   -14.5259 H          1  LIG1   0.1600
     30 H7        -15.3572    16.1154   -14.4887 H          1  LIG1   0.1600
     31 H8        -16.8365    15.6064   -16.3831 H          1  LIG1   0.1500
     32 H9        -17.2726    17.8831   -19.3016 H          1  LIG1   0.1500
     33 H10       -16.7461    16.1838   -19.2444 H          1  LIG1   0.1400
     34 H11       -18.7370    17.7492   -16.3690 H          1  LIG1   0.1400
     35 H12       -18.8965    18.6870   -17.8894 H          1  LIG1   0.1400
     36 H13       -20.8762    16.6816   -16.6716 H          1  LIG1   0.1000
     37 H14       -21.2084    18.3210   -17.3220 H          1  LIG1   0.1200
     38 H15       -21.4961    14.8708   -19.5058 H          1  LIG1   0.0800
     39 H16       -21.8916    15.2575   -17.8011 H          1  LIG1   0.0800
     40 H17       -23.7994    15.5454   -19.6938 H          1  LIG1   0.0800
     41 H18       -23.6178    16.8140   -18.4379 H          1  LIG1   0.0700
     42 H19       -23.3768    19.1235   -21.2758 H          1  LIG1   0.0600
     43 H20       -24.6707    17.9957   -20.8042 H          1  LIG1   0.0600
     44 H21       -23.8257    18.9506   -19.5621 H          1  LIG1   0.0600
     45 H22       -21.5235    18.8074   -19.2850 H          1  LIG1   0.0800
     46 H23       -20.6467    18.0253   -20.6316 H          1  LIG1   0.0700
     47 H24       -19.0887    16.8774   -20.1678 H          1  LIG1   0.1400
     48 H25       -19.4375    15.2638   -19.4861 H          1  LIG1   0.1300
@<TRIPOS>BOND
     1    1    2 1
     2    1   26 1
     3    1   27 1
     4    1   28 1
     5    2    3 1
     6    3    4 2
     7    3    5 1
     8    5   23 ar
     9    5    6 ar
    10    6    7 ar
    11    6   29 1
    12    7    8 ar
    13    7   30 1
    14    8    9 ar
    15    8   31 1
    16    9   10 1
    17    9   23 ar
    18   10   11 1
    19   10   32 1
    20   10   33 1
    21   11   12 1
    22   11   22 1
    23   11   13 1
    24   13   14 1
    25   13   34 1
    26   13   35 1
    27   14   15 1
    28   14   36 1
    29   14   37 1
    30   15   21 1
    31   15   16 1
    32   15   22 1
    33   16   17 1
    34   16   38 1
    35   16   39 1
    36   17   18 1
    37   17   40 1
    38   17   41 1
    39   18   19 1
    40   18   20 1
    41   18   21 1
    42   20   42 1
    43   20   43 1
    44   20   44 1
    45   21   45 1
    46   21   46 1
    47   22   47 1
    48   22   48 1
    49   23   24 1
    50   24   25 3
##########                 Name:     ZINC000644617010
##########          Protonation:                 none
##########               SMILES:   C[C@H]([NH2+]C[C@H](O)CC1=CC=CC(Cl)=C1)[C@@H]1CCCCO1
##########            Long Name:   NO_LONG_NAME
##########          FlexRecCode: 1
##########               Number:                 7280
##########   Ligand Source File: /nfs/db/export/3D/CF/ADRO/CFADRO.xcwb.db2.gz
##########                 Rank:                    1
##########               Setnum:                  210
##########             Matchnum:                    1
##########                Cloud:                    1
##########        Electrostatic:           -38.030502
##########                 Gist:             0.000000
##########        Van der Waals:           -30.247860
##########  Ligand Polar Desolv:            11.049098
########## Ligand Apolar Desolv:            -3.775666
##########      Internal Energy:             0.000000
##########      Receptor Energy:             0.000000
########## Receptor Desolvation:             0.000000
########## Receptor Hydrophobic:             0.000000
##########         Total Energy:           -61.004936
##########        Ligand Charge:             1.000000
##########            Arbitrary:    +999.9990
##########        Ligand Energy:             0.000000

@<TRIPOS>MOLECULE
 ZINC000644617010      none
   45    46     0     0     0



@<TRIPOS>ATOM
      1 C1        -17.8956    17.0103   -20.2966 C.3        1  LIG1  -0.1800
      2 C2        -18.7979    17.2719   -19.0889 C.3        1  LIG1   0.0400
      3 H1        -18.9023    18.3464   -18.9393 H          1  LIG1   0.1500
      4 N1        -18.2005    16.6664   -17.8912 N.4        1  LIG1  -0.5000
      5 H2        -18.9117    16.5434   -17.1861 H          1  LIG1   0.4300
      6 H3        -17.8045    15.7694   -18.1295 H          1  LIG1   0.4300
      7 C3        -17.1441    17.5458   -17.3730 C.3        1  LIG1  -0.0500
      8 C4        -16.5218    16.9152   -16.1256 C.3        1  LIG1   0.0900
      9 H4        -17.3053    16.4611   -15.5187 H          1  LIG1   0.1300
     10 O1        -15.8542    17.9237   -15.3645 O.3        1  LIG1  -0.5500
     11 C5        -15.5149    15.8422   -16.5446 C.3        1  LIG1  -0.1100
     12 C6        -15.2720    14.9033   -15.3911 C.ar       1  LIG1  -0.0800
     13 C7        -16.0589    13.7772   -15.2394 C.ar       1  LIG1  -0.1000
     14 C8        -15.8363    12.9150   -14.1817 C.ar       1  LIG1  -0.1000
     15 C9        -14.8273    13.1791   -13.2751 C.ar       1  LIG1  -0.1000
     16 C10       -14.0392    14.3064   -13.4265 C.ar       1  LIG1  -0.0300
     17 Cl1       -12.7709    14.6385   -12.2886 Cl         1  LIG1  -0.0600
     18 C11       -14.2586    15.1655   -14.4882 C.ar       1  LIG1  -0.1100
     19 C12       -20.1758    16.6555   -19.3388 C.3        1  LIG1   0.0700
     20 H5        -20.0583    15.6887   -19.8283 H          1  LIG1   0.1100
     21 C13       -20.9961    17.5859   -20.2361 C.3        1  LIG1  -0.1600
     22 C14       -22.3942    16.9914   -20.4322 C.3        1  LIG1  -0.1200
     23 C15       -23.0452    16.7829   -19.0615 C.3        1  LIG1  -0.1600
     24 C16       -22.1457    15.8835   -18.2095 C.3        1  LIG1   0.0600
     25 O2        -20.8522    16.4793   -18.0923 O.3        1  LIG1  -0.3900
     26 H6        -17.7913    15.9356   -20.4461 H          1  LIG1   0.1100
     27 H7        -18.3388    17.4595   -21.1853 H          1  LIG1   0.0800
     28 H8        -16.9139    17.4493   -20.1185 H          1  LIG1   0.0900
     29 H9        -16.3759    17.6787   -18.1346 H          1  LIG1   0.1500
     30 H10       -17.5719    18.5147   -17.1153 H          1  LIG1   0.1400
     31 H11       -15.4354    17.5947   -14.5574 H          1  LIG1   0.3900
     32 H12       -15.9119    15.2823   -17.3913 H          1  LIG1   0.1000
     33 H13       -14.5763    16.3167   -16.8308 H          1  LIG1   0.0900
     34 H14       -16.8481    13.5707   -15.9471 H          1  LIG1   0.1300
     35 H15       -16.4515    12.0352   -14.0635 H          1  LIG1   0.1400
     36 H16       -14.6539    12.5059   -12.4486 H          1  LIG1   0.1400
     37 H17       -13.6439    16.0455   -14.6069 H          1  LIG1   0.1300
     38 H18       -21.0796    18.5656   -19.7655 H          1  LIG1   0.0700
     39 H19       -20.5039    17.6862   -21.2034 H          1  LIG1   0.0900
     40 H20       -23.0017    17.6760   -21.0241 H          1  LIG1   0.0800
     41 H21       -22.3144    16.0342   -20.9474 H          1  LIG1   0.0700
     42 H22       -23.1701    17.7463   -18.5672 H          1  LIG1   0.0700
     43 H23       -24.0185    16.3089   -19.1888 H          1  LIG1   0.0900
     44 H24       -22.5832    15.7665   -17.2181 H          1  LIG1   0.1100
     45 H25       -22.0542    14.9067   -18.6843 H          1  LIG1   0.0600
@<TRIPOS>BOND
     1    1    2 1
     2    1   26 1
     3    1   27 1
     4    1   28 1
     5    2    3 1
     6    2    4 1
     7    2   19 1
     8    4    5 1
     9    4    6 1
    10    4    7 1
    11    7    8 1
    12    7   29 1
    13    7   30 1
    14    8    9 1
    15    8   10 1
    16    8   11 1
    17   10   31 1
    18   11   12 1
    19   11   32 1
    20   11   33 1
    21   12   18 ar
    22   12   13 ar
    23   13   14 ar
    24   13   34 1
    25   14   15 ar
    26   14   35 1
    27   15   16 ar
    28   15   36 1
    29   16   17 1
    30   16   18 ar
    31   18   37 1
    32   19   20 1
    33   19   25 1
    34   19   21 1
    35   21   22 1
    36   21   38 1
    37   21   39 1
    38   22   23 1
    39   22   40 1
    40   22   41 1
    41   23   24 1
    42   23   42 1
    43   23   43 1
    44   24   25 1
    45   24   44 1
    46   24   45 1
##########                 Name:     ZINC000567992445
##########          Protonation:                 none
##########               SMILES:   CCC[C@H](C)[C@H](CO)[NH2+]CCC1=NC(C2=CC=C(Cl)C=C2)=NO1
##########            Long Name:   NO_LONG_NAME
##########          FlexRecCode: 1
##########               Number:                 6911
##########   Ligand Source File: /nfs/db/export/3D/EG/ADRO/EGADRO.xauj.db2.gz
##########                 Rank:                    1
##########               Setnum:                  500
##########             Matchnum:                    1
##########                Cloud:                    1
##########        Electrostatic:           -35.076118
##########                 Gist:             0.000000
##########        Van der Waals:           -35.324951
##########  Ligand Polar Desolv:            12.784731
########## Ligand Apolar Desolv:            -3.358716
##########      Internal Energy:             0.000000
##########      Receptor Energy:             0.000000
########## Receptor Desolvation:             0.000000
########## Receptor Hydrophobic:             0.000000
##########         Total Energy:           -60.975056
##########        Ligand Charge:             1.000000
##########            Arbitrary:    +999.9990
##########        Ligand Energy:             0.000000

@<TRIPOS>MOLECULE
 ZINC000567992445      none
   48    49     0     0     0



@<TRIPOS>ATOM
      1 C1        -23.3311    18.4747   -20.8466 C.3        1  LIG1  -0.1600
      2 C2        -21.8157    18.6300   -20.7027 C.3        1  LIG1  -0.1300
      3 C3        -21.2549    17.4474   -19.9104 C.3        1  LIG1  -0.1100
      4 C4        -19.7396    17.6026   -19.7665 C.3        1  LIG1  -0.1100
      5 H1        -19.4978    18.6483   -19.5761 H          1  LIG1   0.1100
      6 C5        -19.0555    17.1480   -21.0573 C.3        1  LIG1  -0.1700
      7 C6        -19.2475    16.7447   -18.5991 C.3        1  LIG1   0.0300
      8 H2        -19.4891    15.6990   -18.7895 H          1  LIG1   0.1500
      9 C7        -19.9316    17.1994   -17.3083 C.3        1  LIG1   0.0500
     10 O1        -19.1707    16.7543   -16.1836 O.3        1  LIG1  -0.5700
     11 N1        -17.7926    16.8938   -18.4610 N.4        1  LIG1  -0.5000
     12 H3        -17.4681    16.3281   -17.6912 H          1  LIG1   0.4300
     13 H4        -17.3415    16.5940   -19.3123 H          1  LIG1   0.4400
     14 C8        -17.4670    18.3031   -18.2043 C.3        1  LIG1  -0.0100
     15 C9        -15.9518    18.4584   -18.0605 C.3        1  LIG1  -0.0500
     16 C10       -15.4671    17.6134   -16.9108 C.2        1  LIG1   0.1600
     17 N2        -15.8077    16.3741   -16.6585 N.2        1  LIG1  -0.4500
     18 C11       -15.1309    16.0322   -15.5388 C.2        1  LIG1   0.2300
     19 C12       -15.1785    14.7203   -14.8466 C.ar       1  LIG1  -0.0400
     20 C13       -14.4274    14.5117   -13.6916 C.ar       1  LIG1  -0.0600
     21 C14       -14.4755    13.2904   -13.0513 C.ar       1  LIG1  -0.1100
     22 C15       -15.2681    12.2730   -13.5549 C.ar       1  LIG1  -0.0100
     23 Cl1       -15.3239    10.7384   -12.7452 Cl         1  LIG1  -0.0500
     24 C16       -16.0166    12.4756   -14.7018 C.ar       1  LIG1  -0.1100
     25 C17       -15.9792    13.6952   -15.3463 C.ar       1  LIG1  -0.0700
     26 N3        -14.4261    17.0739   -15.1806 N.2        1  LIG1  -0.3500
     27 O2        -14.6044    17.9859   -15.9601 O.3        1  LIG1   0.1000
     28 H5        -23.7306    19.3171   -21.4110 H          1  LIG1   0.0600
     29 H6        -23.5527    17.5465   -21.3731 H          1  LIG1   0.0600
     30 H7        -23.7892    18.4498   -19.8578 H          1  LIG1   0.0600
     31 H8        -21.3576    18.6549   -21.6914 H          1  LIG1   0.0700
     32 H9        -21.5940    19.5581   -20.1759 H          1  LIG1   0.0700
     33 H10       -21.7130    17.4225   -18.9216 H          1  LIG1   0.0700
     34 H11       -21.4765    16.5192   -20.4371 H          1  LIG1   0.0700
     35 H12       -17.9759    17.2585   -20.9549 H          1  LIG1   0.0700
     36 H13       -19.2971    16.1023   -21.2477 H          1  LIG1   0.0900
     37 H14       -19.4060    17.7591   -21.8890 H          1  LIG1   0.0500
     38 H15       -19.9968    18.2872   -17.2954 H          1  LIG1   0.1000
     39 H16       -20.9344    16.7747   -17.2596 H          1  LIG1   0.0700
     40 H17       -19.0716    15.7938   -16.1311 H          1  LIG1   0.4100
     41 H18       -17.8177    18.9143   -19.0359 H          1  LIG1   0.1400
     42 H19       -17.9544    18.6270   -17.2847 H          1  LIG1   0.1400
     43 H20       -15.4645    18.1345   -18.9801 H          1  LIG1   0.1300
     44 H21       -15.7101    19.5041   -17.8699 H          1  LIG1   0.1300
     45 H22       -13.8083    15.3045   -13.2985 H          1  LIG1   0.1400
     46 H23       -13.8936    13.1277   -12.1561 H          1  LIG1   0.1500
     47 H24       -16.6336    11.6790   -15.0907 H          1  LIG1   0.1500
     48 H25       -16.5637    13.8524   -16.2407 H          1  LIG1   0.1400
@<TRIPOS>BOND
     1    1    2 1
     2    1   28 1
     3    1   29 1
     4    1   30 1
     5    2    3 1
     6    2   31 1
     7    2   32 1
     8    3    4 1
     9    3   33 1
    10    3   34 1
    11    4    5 1
    12    4    6 1
    13    4    7 1
    14    6   35 1
    15    6   36 1
    16    6   37 1
    17    7    8 1
    18    7    9 1
    19    7   11 1
    20    9   10 1
    21    9   38 1
    22    9   39 1
    23   10   40 1
    24   11   12 1
    25   11   13 1
    26   11   14 1
    27   14   15 1
    28   14   41 1
    29   14   42 1
    30   15   16 1
    31   15   43 1
    32   15   44 1
    33   16   27 1
    34   16   17 2
    35   17   18 1
    36   18   19 1
    37   18   26 2
    38   19   25 ar
    39   19   20 ar
    40   20   21 ar
    41   20   45 1
    42   21   22 ar
    43   21   46 1
    44   22   23 1
    45   22   24 ar
    46   24   25 ar
    47   24   47 1
    48   25   48 1
    49   26   27 1
##########                 Name:     ZINC000349908169
##########          Protonation:                 none
##########               SMILES:   CC(C)[N@@H+](C)C[C@H](C)NC(=O)NC1=CC=C(F)C=C1Br
##########            Long Name:   NO_LONG_NAME
##########          FlexRecCode: 1
##########               Number:                14239
##########   Ligand Source File: /nfs/db/export/3D/EG/ADMO/EGADMO.xagg.db2.gz
##########                 Rank:                    1
##########               Setnum:                   36
##########             Matchnum:                    1
##########                Cloud:                    1
##########        Electrostatic:           -40.231667
##########                 Gist:             0.000000
##########        Van der Waals:           -29.475010
##########  Ligand Polar Desolv:            13.623370
########## Ligand Apolar Desolv:            -4.919274
##########      Internal Energy:             0.000000
##########      Receptor Energy:             0.000000
########## Receptor Desolvation:             0.000000
########## Receptor Hydrophobic:             0.000000
##########         Total Energy:           -61.002586
##########        Ligand Charge:             1.000000
##########            Arbitrary:    +999.9990
##########        Ligand Energy:             0.000000

@<TRIPOS>MOLECULE
 ZINC000349908169      none
   42    42     0     0     0



@<TRIPOS>ATOM
      1 C1        -21.4775    18.1008   -18.8550 C.3        1  LIG1  -0.1900
      2 C2        -20.6448    17.2696   -17.8771 C.3        1  LIG1   0.0200
      3 C3        -21.5615    16.3142   -17.1104 C.3        1  LIG1  -0.1900
      4 N1        -19.6434    16.4949   -18.6222 N.4        1  LIG1  -0.3800
      5 H1        -19.3249    15.7235   -18.0551 H          1  LIG1   0.4200
      6 C4        -20.2449    15.9782   -19.8587 C.3        1  LIG1  -0.0700
      7 C5        -18.5041    17.3602   -18.9562 C.3        1  LIG1  -0.0200
      8 C6        -17.5903    17.4937   -17.7363 C.3        1  LIG1   0.1400
      9 H2        -18.1494    17.9320   -16.9097 H          1  LIG1   0.1200
     10 C7        -16.4037    18.3946   -18.0842 C.3        1  LIG1  -0.1700
     11 N2        -17.1000    16.1695   -17.3462 N.am       1  LIG1  -0.7600
     12 C8        -16.2731    16.0412   -16.2896 C.2        1  LIG1   0.7100
     13 O1        -15.9341    17.0247   -15.6602 O.2        1  LIG1  -0.5500
     14 N3        -15.8222    14.8229   -15.9308 N.am       1  LIG1  -0.6700
     15 C9        -14.9627    14.6897   -14.8325 C.ar       1  LIG1   0.1700
     16 C10       -14.1000    15.7234   -14.4957 C.ar       1  LIG1  -0.1000
     17 C11       -13.2536    15.5905   -13.4119 C.ar       1  LIG1  -0.1100
     18 C12       -13.2648    14.4269   -12.6619 C.ar       1  LIG1   0.1000
     19 F1        -12.4358    14.2991   -11.6028 F          1  LIG1  -0.1300
     20 C13       -14.1249    13.3939   -12.9954 C.ar       1  LIG1  -0.1000
     21 C14       -14.9769    13.5248   -14.0752 C.ar       1  LIG1  -0.1000
     22 Br1       -16.1517    12.1146   -14.5301 Br         1  LIG1  -0.0200
     23 H3        -20.8243    18.7813   -19.4011 H          1  LIG1   0.1100
     24 H4        -21.9811    17.4377   -19.5584 H          1  LIG1   0.0800
     25 H5        -22.2205    18.6757   -18.3022 H          1  LIG1   0.0800
     26 H6        -20.1413    17.9328   -17.1737 H          1  LIG1   0.1400
     27 H7        -20.9681    15.7221   -16.4137 H          1  LIG1   0.0800
     28 H8        -22.3044    16.8890   -16.5575 H          1  LIG1   0.0800
     29 H9        -22.0649    15.6511   -17.8138 H          1  LIG1   0.1100
     30 H10       -19.5017    15.4034   -20.4116 H          1  LIG1   0.1300
     31 H11       -21.0901    15.3361   -19.6110 H          1  LIG1   0.1300
     32 H12       -20.5889    16.8116   -20.4712 H          1  LIG1   0.1200
     33 H13       -17.9451    16.9218   -19.7829 H          1  LIG1   0.1400
     34 H14       -18.8691    18.3455   -19.2463 H          1  LIG1   0.1500
     35 H15       -15.7527    18.4897   -17.2150 H          1  LIG1   0.0700
     36 H16       -15.8445    17.9563   -18.9107 H          1  LIG1   0.0800
     37 H17       -16.7685    19.3800   -18.3744 H          1  LIG1   0.0800
     38 H18       -17.3705    15.3849   -17.8484 H          1  LIG1   0.4000
     39 H19       -16.0926    14.0383   -16.4330 H          1  LIG1   0.4100
     40 H20       -14.0902    16.6312   -15.0808 H          1  LIG1   0.1700
     41 H21       -12.5822    16.3949   -13.1498 H          1  LIG1   0.1500
     42 H22       -14.1321    12.4871   -12.4089 H          1  LIG1   0.1500
@<TRIPOS>BOND
     1    1    2 1
     2    1   23 1
     3    1   24 1
     4    1   25 1
     5    2    3 1
     6    2    4 1
     7    2   26 1
     8    3   27 1
     9    3   28 1
    10    3   29 1
    11    4    5 1
    12    4    6 1
    13    4    7 1
    14    6   30 1
    15    6   31 1
    16    6   32 1
    17    7    8 1
    18    7   33 1
    19    7   34 1
    20    8    9 1
    21    8   10 1
    22    8   11 1
    23   10   35 1
    24   10   36 1
    25   10   37 1
    26   11   12 am
    27   11   38 1
    28   12   13 2
    29   12   14 am
    30   14   15 1
    31   14   39 1
    32   15   21 ar
    33   15   16 ar
    34   16   17 ar
    35   16   40 1
    36   17   18 ar
    37   17   41 1
    38   18   19 1
    39   18   20 ar
    40   20   21 ar
    41   20   42 1
    42   21   22 1
##########                 Name:     ZINC000248909028
##########          Protonation:                 none
##########               SMILES:   O=C(NC[C@@H](C1=CC=CC(Cl)=C1)[NH+]1CCCC1)NC[C@@H]1CC[C@@H](O)C1
##########            Long Name:   NO_LONG_NAME
##########          FlexRecCode: 1
##########               Number:                19381
##########   Ligand Source File: /nfs/db/export/3D/FF/ADRO/FFADRO.xblx.db2.gz
##########                 Rank:                    1
##########               Setnum:                  597
##########             Matchnum:                    1
##########                Cloud:                    1
##########        Electrostatic:           -42.721069
##########                 Gist:             0.000000
##########        Van der Waals:           -30.304451
##########  Ligand Polar Desolv:            15.087856
########## Ligand Apolar Desolv:            -3.052897
##########      Internal Energy:             0.000000
##########      Receptor Energy:             0.000000
########## Receptor Desolvation:             0.000000
########## Receptor Hydrophobic:             0.000000
##########         Total Energy:           -60.990562
##########        Ligand Charge:             1.000000
##########            Arbitrary:    +999.9990
##########        Ligand Energy:             0.000000

@<TRIPOS>MOLECULE
 ZINC000248909028      none
   54    56     0     0     0



@<TRIPOS>ATOM
      1 O1        -16.4756    18.0006   -21.4980 O.2        1  LIG1  -0.5800
      2 C1        -17.5417    17.7926   -22.0442 C.2        1  LIG1   0.7100
      3 N1        -18.4558    16.9955   -21.4566 N.am       1  LIG1  -0.7500
      4 C2        -18.1624    16.3747   -20.1623 C.3        1  LIG1   0.1300
      5 C3        -18.6229    17.3018   -19.0359 C.3        1  LIG1   0.0700
      6 H1        -18.0961    18.2531   -19.1101 H          1  LIG1   0.1500
      7 C4        -20.1065    17.5384   -19.1547 C.ar       1  LIG1  -0.1300
      8 C5        -20.9941    16.6963   -18.5117 C.ar       1  LIG1  -0.1200
      9 C6        -22.3554    16.9130   -18.6199 C.ar       1  LIG1  -0.0800
     10 C7        -22.8292    17.9715   -19.3715 C.ar       1  LIG1  -0.0800
     11 C8        -21.9411    18.8148   -20.0154 C.ar       1  LIG1  -0.0200
     12 Cl1       -22.5356    20.1450   -20.9592 Cl         1  LIG1  -0.0400
     13 C9        -20.5791    18.6009   -19.9021 C.ar       1  LIG1  -0.0900
     14 N2        -18.3287    16.6792   -17.7382 N.4        1  LIG1  -0.3900
     15 H2        -18.8114    15.7968   -17.6578 H          1  LIG1   0.4300
     16 C10       -16.8648    16.4780   -17.5869 C.3        1  LIG1  -0.0100
     17 C11       -16.6783    16.3727   -16.0523 C.3        1  LIG1  -0.1400
     18 C12       -17.6949    17.4029   -15.5089 C.3        1  LIG1  -0.1400
     19 C13       -18.7292    17.5817   -16.6371 C.3        1  LIG1  -0.0100
     20 N3        -17.8115    18.3637   -23.2348 N.am       1  LIG1  -0.7400
     21 C14       -16.8180    19.2303   -23.8735 C.3        1  LIG1   0.1400
     22 C15       -17.4085    20.6288   -24.0647 C.3        1  LIG1  -0.1000
     23 H3        -18.2962    20.5759   -24.6950 H          1  LIG1   0.0800
     24 C16       -16.3603    21.5621   -24.7052 C.3        1  LIG1  -0.1200
     25 C17       -16.5981    22.9290   -24.0167 C.3        1  LIG1  -0.1600
     26 C18       -16.9230    22.5250   -22.5573 C.3        1  LIG1   0.1000
     27 H4        -16.0058    22.3200   -22.0050 H          1  LIG1   0.0600
     28 O2        -17.6763    23.5523   -21.9098 O.3        1  LIG1  -0.5600
     29 C19       -17.7674    21.2405   -22.6992 C.3        1  LIG1  -0.1100
     30 H5        -19.3079    16.8327   -21.8905 H          1  LIG1   0.4000
     31 H6        -18.6891    15.4231   -20.0881 H          1  LIG1   0.0900
     32 H7        -17.0893    16.2035   -20.0765 H          1  LIG1   0.1000
     33 H8        -20.6243    15.8686   -17.9249 H          1  LIG1   0.1300
     34 H9        -23.0485    16.2546   -18.1173 H          1  LIG1   0.1500
     35 H10       -23.8926    18.1402   -19.4565 H          1  LIG1   0.1500
     36 H11       -19.8853    19.2588   -20.4045 H          1  LIG1   0.1400
     37 H12       -16.5505    15.5565   -18.0767 H          1  LIG1   0.1400
     38 H13       -16.3161    17.3323   -17.9832 H          1  LIG1   0.1400
     39 H14       -16.9215    15.3695   -15.7022 H          1  LIG1   0.1000
     40 H15       -15.6625    16.6461   -15.7674 H          1  LIG1   0.1200
     41 H16       -18.1788    17.0195   -14.6106 H          1  LIG1   0.1100
     42 H17       -17.1977    18.3494   -15.2971 H          1  LIG1   0.1100
     43 H18       -18.7248    18.6148   -16.9847 H          1  LIG1   0.1300
     44 H19       -19.7221    17.3127   -16.2766 H          1  LIG1   0.1300
     45 H20       -18.6638    18.2011   -23.6687 H          1  LIG1   0.4000
     46 H21       -15.9315    19.2934   -23.2425 H          1  LIG1   0.0700
     47 H22       -16.5445    18.8157   -24.8438 H          1  LIG1   0.0700
     48 H23       -15.3525    21.2015   -24.4997 H          1  LIG1   0.0700
     49 H24       -16.5264    21.6419   -25.7794 H          1  LIG1   0.0700
     50 H25       -15.6982    23.5431   -24.0564 H          1  LIG1   0.0700
     51 H26       -17.4418    23.4486   -24.4708 H          1  LIG1   0.0800
     52 H27       -18.5215    23.7487   -22.3366 H          1  LIG1   0.3800
     53 H28       -18.8289    21.4860   -22.6662 H          1  LIG1   0.0800
     54 H29       -17.5205    20.5412   -21.9004 H          1  LIG1   0.0800
@<TRIPOS>BOND
     1    1    2 2
     2    2    3 am
     3    2   20 am
     4    3    4 1
     5    3   30 1
     6    4    5 1
     7    4   31 1
     8    4   32 1
     9    5    6 1
    10    5    7 1
    11    5   14 1
    12    7   13 ar
    13    7    8 ar
    14    8    9 ar
    15    8   33 1
    16    9   10 ar
    17    9   34 1
    18   10   11 ar
    19   10   35 1
    20   11   12 1
    21   11   13 ar
    22   13   36 1
    23   14   15 1
    24   14   19 1
    25   14   16 1
    26   16   17 1
    27   16   37 1
    28   16   38 1
    29   17   18 1
    30   17   39 1
    31   17   40 1
    32   18   19 1
    33   18   41 1
    34   18   42 1
    35   19   43 1
    36   19   44 1
    37   20   21 1
    38   20   45 1
    39   21   22 1
    40   21   46 1
    41   21   47 1
    42   22   23 1
    43   22   29 1
    44   22   24 1
    45   24   25 1
    46   24   48 1
    47   24   49 1
    48   25   26 1
    49   25   50 1
    50   25   51 1
    51   26   27 1
    52   26   28 1
    53   26   29 1
    54   28   52 1
    55   29   53 1
    56   29   54 1
##########                 Name:     ZINC000329185772
##########          Protonation:                 none
##########               SMILES:   C[C@H]1CC[C@H](C)[NH+]1CC(=O)NC1=CNN=C1C1=CC=CC=C1
##########            Long Name:   NO_LONG_NAME
##########          FlexRecCode: 1
##########               Number:                 4975
##########   Ligand Source File: /nfs/db/export/3D/CH/EDRO/CHEDRO.xax.db2.gz
##########                 Rank:                    1
##########               Setnum:                   41
##########             Matchnum:                    1
##########                Cloud:                    1
##########        Electrostatic:           -40.656464
##########                 Gist:             0.000000
##########        Van der Waals:           -31.826632
##########  Ligand Polar Desolv:            15.635479
########## Ligand Apolar Desolv:            -4.128189
##########      Internal Energy:             0.000000
##########      Receptor Energy:             0.000000
########## Receptor Desolvation:             0.000000
########## Receptor Hydrophobic:             0.000000
##########         Total Energy:           -60.975803
##########        Ligand Charge:             1.000000
##########            Arbitrary:    +999.9990
##########        Ligand Energy:             0.000000

@<TRIPOS>MOLECULE
 ZINC000329185772      none
   45    47     0     0     0



@<TRIPOS>ATOM
      1 C1        -21.3629    17.2174   -18.2555 C.3        1  LIG1  -0.2000
      2 C2        -20.4318    16.2653   -19.0089 C.3        1  LIG1   0.0300
      3 H1        -20.7564    15.2354   -18.8612 H          1  LIG1   0.1400
      4 C3        -20.4374    16.6070   -20.5137 C.3        1  LIG1  -0.1400
      5 C4        -18.9562    16.3976   -20.9251 C.3        1  LIG1  -0.1400
      6 C5        -18.2081    16.8829   -19.6584 C.3        1  LIG1   0.0200
      7 H2        -18.1249    17.9696   -19.6598 H          1  LIG1   0.1400
      8 C6        -16.8202    16.2434   -19.5818 C.3        1  LIG1  -0.1800
      9 N1        -19.0485    16.4295   -18.5254 N.4        1  LIG1  -0.3700
     10 H3        -18.7010    15.5491   -18.1757 H          1  LIG1   0.4300
     11 C7        -19.0185    17.4346   -17.4544 C.3        1  LIG1  -0.0400
     12 C8        -17.6042    17.6011   -16.9614 C.2        1  LIG1   0.5000
     13 O1        -16.8753    18.4231   -17.4760 O.2        1  LIG1  -0.5300
     14 N2        -17.1491    16.8369   -15.9490 N.am       1  LIG1  -0.6100
     15 C9        -15.8296    16.9923   -15.4889 C.2        1  LIG1  -0.0200
     16 C10       -15.1074    18.1395   -15.5057 C.2        1  LIG1   0.0700
     17 N3        -13.8861    17.8691   -14.9748 N.pl3      1  LIG1  -0.4600
     18 N4        -13.8556    16.5145   -14.6205 N.2        1  LIG1  -0.2500
     19 C11       -15.0216    15.9828   -14.9213 C.2        1  LIG1   0.1200
     20 C12       -15.4147    14.5680   -14.7100 C.ar       1  LIG1  -0.0300
     21 C13       -14.8754    13.8434   -13.6488 C.ar       1  LIG1  -0.1100
     22 C14       -15.2450    12.5276   -13.4566 C.ar       1  LIG1  -0.1100
     23 C15       -16.1491    11.9281   -14.3148 C.ar       1  LIG1  -0.1000
     24 C16       -16.6877    12.6426   -15.3696 C.ar       1  LIG1  -0.1100
     25 C17       -16.3292    13.9605   -15.5683 C.ar       1  LIG1  -0.0900
     26 H4        -21.0324    18.2450   -18.4076 H          1  LIG1   0.0800
     27 H5        -22.3799    17.1036   -18.6308 H          1  LIG1   0.1100
     28 H6        -21.3396    16.9820   -17.1915 H          1  LIG1   0.0900
     29 H7        -21.0892    15.9261   -21.0611 H          1  LIG1   0.1100
     30 H8        -20.7388    17.6424   -20.6728 H          1  LIG1   0.1000
     31 H9        -18.7503    15.3454   -21.1212 H          1  LIG1   0.1000
     32 H10       -18.7004    17.0115   -21.7888 H          1  LIG1   0.1200
     33 H11       -16.3074    16.5945   -18.6862 H          1  LIG1   0.1100
     34 H12       -16.9216    15.1589   -19.5407 H          1  LIG1   0.0800
     35 H13       -16.2428    16.5213   -20.4636 H          1  LIG1   0.0800
     36 H14       -19.3835    18.3867   -17.8394 H          1  LIG1   0.1600
     37 H15       -19.6540    17.1077   -16.6314 H          1  LIG1   0.1700
     38 H16       -17.7319    16.1797   -15.5375 H          1  LIG1   0.4200
     39 H17       -15.4427    19.0973   -15.8754 H          1  LIG1   0.2100
     40 H18       -13.1613    18.5038   -14.8615 H          1  LIG1   0.4500
     41 H19       -14.1690    14.3104   -12.9784 H          1  LIG1   0.1200
     42 H20       -14.8273    11.9650   -12.6348 H          1  LIG1   0.1300
     43 H21       -16.4353    10.8981   -14.1609 H          1  LIG1   0.1300
     44 H22       -17.3932    12.1696   -16.0368 H          1  LIG1   0.1300
     45 H23       -16.7503    14.5175   -16.3922 H          1  LIG1   0.1300
@<TRIPOS>BOND
     1    1    2 1
     2    1   26 1
     3    1   27 1
     4    1   28 1
     5    2    3 1
     6    2    9 1
     7    2    4 1
     8    4    5 1
     9    4   29 1
    10    4   30 1
    11    5    6 1
    12    5   31 1
    13    5   32 1
    14    6    7 1
    15    6    8 1
    16    6    9 1
    17    8   33 1
    18    8   34 1
    19    8   35 1
    20    9   10 1
    21    9   11 1
    22   11   12 1
    23   11   36 1
    24   11   37 1
    25   12   13 2
    26   12   14 am
    27   14   15 1
    28   14   38 1
    29   15   19 1
    30   15   16 2
    31   16   17 1
    32   16   39 1
    33   17   18 1
    34   17   40 1
    35   18   19 2
    36   19   20 1
    37   20   25 ar
    38   20   21 ar
    39   21   22 ar
    40   21   41 1
    41   22   23 ar
    42   22   42 1
    43   23   24 ar
    44   23   43 1
    45   24   25 ar
    46   24   44 1
    47   25   45 1
##########                 Name:     ZINC000294513981
##########          Protonation:                 none
##########               SMILES:   CS[C@@H]1C[N@H+](C[C@@H](O)C2=CC3=CC=CC=C3O2)C[C@H]1N1CCCC1
##########            Long Name:   NO_LONG_NAME
##########          FlexRecCode: 1
##########               Number:                  949
##########   Ligand Source File: /nfs/db/export/3D/EF/ADMO/EFADMO.xamn.db2.gz
##########                 Rank:                    1
##########               Setnum:                  165
##########             Matchnum:                    1
##########                Cloud:                    1
##########        Electrostatic:           -39.110069
##########                 Gist:             0.000000
##########        Van der Waals:           -32.532516
##########  Ligand Polar Desolv:            14.682314
########## Ligand Apolar Desolv:            -4.021755
##########      Internal Energy:             0.000000
##########      Receptor Energy:             0.000000
########## Receptor Desolvation:             0.000000
########## Receptor Hydrophobic:             0.000000
##########         Total Energy:           -60.982025
##########        Ligand Charge:             1.000000
##########            Arbitrary:    +999.9990
##########        Ligand Energy:             0.000000

@<TRIPOS>MOLECULE
 ZINC000294513981      none
   51    54     0     0     0



@<TRIPOS>ATOM
      1 C1        -15.0231    19.9832   -20.1587 C.3        1  LIG1  -0.1400
      2 S1        -15.7001    18.3409   -20.5262 S.3        1  LIG1  -0.1900
      3 C2        -17.3634    18.3998   -19.7595 C.3        1  LIG1  -0.0900
      4 H1        -17.8127    19.3918   -19.9361 H          1  LIG1   0.1300
      5 C3        -17.2850    18.1250   -18.2603 C.3        1  LIG1   0.0000
      6 N1        -17.6137    16.6483   -18.1018 N.4        1  LIG1  -0.3900
      7 H2        -18.5198    16.5932   -17.5317 H          1  LIG1   0.4400
      8 C4        -16.5860    15.8664   -17.3474 C.3        1  LIG1  -0.0400
      9 C5        -16.7769    16.0890   -15.8458 C.3        1  LIG1   0.1800
     10 H3        -16.3305    17.0415   -15.5600 H          1  LIG1   0.1500
     11 O1        -18.1728    16.1063   -15.5404 O.3        1  LIG1  -0.5400
     12 C6        -16.1098    14.9729   -15.0838 C.2        1  LIG1  -0.0400
     13 C7        -16.4196    13.6743   -15.1979 C.2        1  LIG1  -0.1500
     14 C8        -15.5254    12.9583   -14.2800 C.ar       1  LIG1  -0.1400
     15 C9        -15.3485    11.6183   -13.9396 C.ar       1  LIG1  -0.0600
     16 C10       -14.3910    11.2727   -13.0113 C.ar       1  LIG1  -0.1300
     17 C11       -13.6072    12.2512   -12.4176 C.ar       1  LIG1  -0.0800
     18 C12       -13.7727    13.5800   -12.7453 C.ar       1  LIG1  -0.1100
     19 C13       -14.7315    13.9499   -13.6794 C.ar       1  LIG1   0.0700
     20 O2        -15.1141    15.1355   -14.1953 O.3        1  LIG1  -0.1900
     21 C14       -17.9259    16.0836   -19.4728 C.3        1  LIG1   0.0100
     22 C15       -18.2811    17.3063   -20.3113 C.3        1  LIG1   0.0700
     23 H4        -18.0688    17.1270   -21.3633 H          1  LIG1   0.1000
     24 N2        -19.6913    17.6669   -20.1249 N.3        1  LIG1  -0.5200
     25 C16       -20.1541    18.5336   -21.2099 C.3        1  LIG1   0.0300
     26 C17       -21.6684    18.4188   -21.1149 C.3        1  LIG1  -0.1300
     27 C18       -21.9254    17.0710   -20.4475 C.3        1  LIG1  -0.1300
     28 C19       -20.5454    16.4805   -20.1993 C.3        1  LIG1   0.0300
     29 H5        -14.0187    20.0636   -20.5744 H          1  LIG1   0.0900
     30 H6        -15.6620    20.7472   -20.6019 H          1  LIG1   0.0800
     31 H7        -14.9818    20.1260   -19.0787 H          1  LIG1   0.1200
     32 H8        -16.2814    18.3133   -17.8748 H          1  LIG1   0.1500
     33 H9        -18.0182    18.7174   -17.7100 H          1  LIG1   0.1400
     34 H10       -16.6972    14.8062   -17.5746 H          1  LIG1   0.1400
     35 H11       -15.5899    16.1983   -17.6401 H          1  LIG1   0.1500
     36 H12       -18.6354    15.2885   -15.7686 H          1  LIG1   0.4000
     37 H13       -17.1752    13.2414   -15.8367 H          1  LIG1   0.1600
     38 H14       -15.9585    10.8555   -14.4006 H          1  LIG1   0.1300
     39 H15       -14.2504    10.2357   -12.7444 H          1  LIG1   0.1400
     40 H16       -12.8599    11.9691   -11.6908 H          1  LIG1   0.1400
     41 H17       -13.1569    14.3329   -12.2758 H          1  LIG1   0.1400
     42 H18       -17.0466    15.5756   -19.8631 H          1  LIG1   0.1400
     43 H19       -18.7667    15.3972   -19.3978 H          1  LIG1   0.1400
     44 H20       -19.8274    19.5660   -21.0496 H          1  LIG1   0.0900
     45 H21       -19.7925    18.1721   -22.1779 H          1  LIG1   0.0600
     46 H22       -22.0889    19.2403   -20.5075 H          1  LIG1   0.0800
     47 H23       -22.1300    18.4506   -22.1181 H          1  LIG1   0.0800
     48 H24       -22.4591    17.2069   -19.5016 H          1  LIG1   0.0800
     49 H25       -22.5066    16.4203   -21.1084 H          1  LIG1   0.0700
     50 H26       -20.2495    15.8562   -21.0261 H          1  LIG1   0.0500
     51 H27       -20.5281    15.9461   -19.2638 H          1  LIG1   0.0900
@<TRIPOS>BOND
     1    1    2 1
     2    1   29 1
     3    1   30 1
     4    1   31 1
     5    2    3 1
     6    3    4 1
     7    3   22 1
     8    3    5 1
     9    5    6 1
    10    5   32 1
    11    5   33 1
    12    6    7 1
    13    6    8 1
    14    6   21 1
    15    8    9 1
    16    8   34 1
    17    8   35 1
    18    9   10 1
    19    9   11 1
    20    9   12 1
    21   11   36 1
    22   12   20 1
    23   12   13 2
    24   13   14 1
    25   13   37 1
    26   14   19 ar
    27   14   15 ar
    28   15   16 ar
    29   15   38 1
    30   16   17 ar
    31   16   39 1
    32   17   18 ar
    33   17   40 1
    34   18   19 ar
    35   18   41 1
    36   19   20 1
    37   21   22 1
    38   21   42 1
    39   21   43 1
    40   22   23 1
    41   22   24 1
    42   24   28 1
    43   24   25 1
    44   25   26 1
    45   25   44 1
    46   25   45 1
    47   26   27 1
    48   26   46 1
    49   26   47 1
    50   27   28 1
    51   27   48 1
    52   27   49 1
    53   28   50 1
    54   28   51 1
##########                 Name:     ZINC000581277232
##########          Protonation:                 none
##########               SMILES:   COC(=O)C1=C(C[NH2+]C[C@H](CO)C2=CC=CC=C2Cl)C=CO1
##########            Long Name:   NO_LONG_NAME
##########          FlexRecCode: 1
##########               Number:                 2893
##########   Ligand Source File: /nfs/db/export/3D/DF/ADRO/DFADRO.xajc.db2.gz
##########                 Rank:                    1
##########               Setnum:                   21
##########             Matchnum:                    1
##########                Cloud:                    1
##########        Electrostatic:           -34.674519
##########                 Gist:             0.000000
##########        Van der Waals:           -33.067783
##########  Ligand Polar Desolv:            10.605406
########## Ligand Apolar Desolv:            -3.867580
##########      Internal Energy:             0.000000
##########      Receptor Energy:             0.000000
########## Receptor Desolvation:             0.000000
########## Receptor Hydrophobic:             0.000000
##########         Total Energy:           -61.004478
##########        Ligand Charge:             1.000000
##########            Arbitrary:    +999.9990
##########        Ligand Energy:             0.000000

@<TRIPOS>MOLECULE
 ZINC000581277232      none
   41    42     0     0     0



@<TRIPOS>ATOM
      1 C1        -13.7338    20.4320   -16.5510 C.3        1  LIG1   0.0300
      2 O1        -13.8788    19.0364   -16.1774 O.3        1  LIG1  -0.3300
      3 C2        -15.1148    18.5034   -16.2678 C.2        1  LIG1   0.5500
      4 O2        -16.0456    19.1874   -16.6489 O.2        1  LIG1  -0.5000
      5 C3        -15.3358    17.1011   -15.9072 C.2        1  LIG1  -0.0200
      6 C4        -16.5291    16.4373   -15.9579 C.2        1  LIG1  -0.1500
      7 C5        -17.8563    17.0047   -16.3911 C.3        1  LIG1   0.0700
      8 N1        -18.0224    16.8121   -17.8380 N.4        1  LIG1  -0.5000
      9 H1        -17.2782    17.2856   -18.3279 H          1  LIG1   0.4300
     10 H2        -17.9922    15.8265   -18.0517 H          1  LIG1   0.4200
     11 C6        -19.3161    17.3654   -18.2602 C.3        1  LIG1   0.0000
     12 C7        -19.4891    17.1649   -19.7672 C.3        1  LIG1  -0.0700
     13 H3        -19.4565    16.1001   -19.9982 H          1  LIG1   0.1200
     14 C8        -18.3603    17.8826   -20.5100 C.3        1  LIG1   0.0700
     15 O3        -17.1020    17.3443   -20.0991 O.3        1  LIG1  -0.6000
     16 C9        -20.8161    17.7325   -20.2004 C.ar       1  LIG1  -0.0900
     17 C10       -20.9059    19.0525   -20.5997 C.ar       1  LIG1  -0.1000
     18 C11       -22.1234    19.5735   -20.9971 C.ar       1  LIG1  -0.1100
     19 C12       -23.2514    18.7747   -20.9950 C.ar       1  LIG1  -0.0900
     20 C13       -23.1628    17.4542   -20.5958 C.ar       1  LIG1  -0.1000
     21 C14       -21.9439    16.9307   -20.2039 C.ar       1  LIG1  -0.0200
     22 Cl1       -21.8318    15.2725   -19.7025 Cl         1  LIG1  -0.0600
     23 C15       -16.2792    15.1252   -15.5286 C.2        1  LIG1  -0.2100
     24 C16       -14.9615    15.0456   -15.2381 C.2        1  LIG1   0.0400
     25 O4        -14.3956    16.2364   -15.4723 O.3        1  LIG1  -0.1300
     26 H4        -12.6931    20.7337   -16.4324 H          1  LIG1   0.1200
     27 H5        -14.0339    20.5628   -17.5908 H          1  LIG1   0.0700
     28 H6        -14.3657    21.0472   -15.9104 H          1  LIG1   0.0700
     29 H7        -18.6603    16.4932   -15.8619 H          1  LIG1   0.1500
     30 H8        -17.8891    18.0694   -16.1601 H          1  LIG1   0.1500
     31 H9        -20.1202    16.8538   -17.7311 H          1  LIG1   0.1400
     32 H10       -19.3489    18.4300   -18.0292 H          1  LIG1   0.1300
     33 H11       -18.4835    17.7398   -21.5835 H          1  LIG1   0.0800
     34 H12       -18.3930    18.9474   -20.2790 H          1  LIG1   0.0700
     35 H13       -17.0028    16.3986   -20.2744 H          1  LIG1   0.4100
     36 H14       -20.0249    19.6774   -20.6009 H          1  LIG1   0.1300
     37 H15       -22.1931    20.6051   -21.3092 H          1  LIG1   0.1400
     38 H16       -24.2022    19.1825   -21.3049 H          1  LIG1   0.1400
     39 H17       -24.0443    16.8302   -20.5941 H          1  LIG1   0.1400
     40 H18       -17.0037    14.3285   -15.4455 H          1  LIG1   0.1800
     41 H19       -14.4486    14.1653   -14.8795 H          1  LIG1   0.2300
@<TRIPOS>BOND
     1    1    2 1
     2    1   26 1
     3    1   27 1
     4    1   28 1
     5    2    3 1
     6    3    4 2
     7    3    5 1
     8    5   25 1
     9    5    6 2
    10    6    7 1
    11    6   23 1
    12    7    8 1
    13    7   29 1
    14    7   30 1
    15    8    9 1
    16    8   10 1
    17    8   11 1
    18   11   12 1
    19   11   31 1
    20   11   32 1
    21   12   13 1
    22   12   14 1
    23   12   16 1
    24   14   15 1
    25   14   33 1
    26   14   34 1
    27   15   35 1
    28   16   21 ar
    29   16   17 ar
    30   17   18 ar
    31   17   36 1
    32   18   19 ar
    33   18   37 1
    34   19   20 ar
    35   19   38 1
    36   20   21 ar
    37   20   39 1
    38   21   22 1
    39   23   24 2
    40   23   40 1
    41   24   25 1
    42   24   41 1
##########                 Name:     ZINC000278933042
##########          Protonation:                 none
##########               SMILES:   C=CN1C=C(C[NH2+]C[C@@H](CO)CC2=CC=CC=C2Br)C=N1
##########            Long Name:   NO_LONG_NAME
##########          FlexRecCode: 1
##########               Number:                15270
##########   Ligand Source File: /nfs/db/export/3D/FF/ADRO/FFADRO.xbad.db2.gz
##########                 Rank:                    1
##########               Setnum:                  107
##########             Matchnum:                    1
##########                Cloud:                    1
##########        Electrostatic:           -45.393684
##########                 Gist:             0.000000
##########        Van der Waals:           -29.820005
##########  Ligand Polar Desolv:            18.629526
########## Ligand Apolar Desolv:            -4.417943
##########      Internal Energy:             0.000000
##########      Receptor Energy:             0.000000
########## Receptor Desolvation:             0.000000
########## Receptor Hydrophobic:             0.000000
##########         Total Energy:           -61.002106
##########        Ligand Charge:             1.000000
##########            Arbitrary:    +999.9990
##########        Ligand Energy:             0.000000

@<TRIPOS>MOLECULE
 ZINC000278933042      none
   42    43     0     0     0



@<TRIPOS>ATOM
      1 C1        -14.7055    13.5473   -12.5213 C.2        1  LIG1  -0.1500
      2 C2        -15.4300    13.5418   -13.6231 C.2        1  LIG1   0.0300
      3 N1        -15.2109    14.5064   -14.6071 N.pl3      1  LIG1  -0.3000
      4 C3        -15.8849    14.6198   -15.7808 C.2        1  LIG1   0.1000
      5 C4        -15.3709    15.6794   -16.4474 C.2        1  LIG1  -0.3200
      6 C5        -15.8166    16.1774   -17.7982 C.3        1  LIG1   0.0900
      7 N2        -17.2843    16.2151   -17.8462 N.4        1  LIG1  -0.5100
      8 H1        -17.6498    15.2874   -17.6925 H          1  LIG1   0.4300
      9 H2        -17.6285    16.8355   -17.1287 H          1  LIG1   0.4300
     10 C6        -17.7188    16.7006   -19.1629 C.3        1  LIG1   0.0000
     11 C7        -19.2474    16.7399   -19.2130 C.3        1  LIG1  -0.1100
     12 H3        -19.6422    15.7376   -19.0469 H          1  LIG1   0.1000
     13 C8        -19.7693    17.6804   -18.1249 C.3        1  LIG1   0.0500
     14 O1        -19.3467    17.2080   -16.8441 O.3        1  LIG1  -0.5500
     15 C9        -19.6999    17.2457   -20.5843 C.3        1  LIG1  -0.0800
     16 C10       -21.2056    17.2845   -20.6336 C.ar       1  LIG1  -0.0600
     17 C11       -21.9333    16.1251   -20.4433 C.ar       1  LIG1  -0.1100
     18 C12       -23.3148    16.1605   -20.4885 C.ar       1  LIG1  -0.1100
     19 C13       -23.9685    17.3554   -20.7236 C.ar       1  LIG1  -0.1000
     20 C14       -23.2415    18.5155   -20.9140 C.ar       1  LIG1  -0.1000
     21 C15       -21.8597    18.4816   -20.8637 C.ar       1  LIG1  -0.0300
     22 Br1       -20.8644    20.0682   -21.1241 Br         1  LIG1  -0.0500
     23 C16       -14.3535    16.2316   -15.6617 C.2        1  LIG1   0.0700
     24 N3        -14.2604    15.5344   -14.5581 N.2        1  LIG1  -0.2700
     25 H4        -13.9424    14.2986   -12.3807 H          1  LIG1   0.1200
     26 H5        -14.8782    12.8034   -11.7578 H          1  LIG1   0.1400
     27 H6        -16.1930    12.7905   -13.7637 H          1  LIG1   0.1700
     28 H7        -16.6861    13.9803   -16.1204 H          1  LIG1   0.1900
     29 H8        -15.4217    17.1797   -17.9642 H          1  LIG1   0.1400
     30 H9        -15.4447    15.5073   -18.5733 H          1  LIG1   0.1400
     31 H10       -17.3239    17.7030   -19.3290 H          1  LIG1   0.1400
     32 H11       -17.3469    16.0306   -19.9380 H          1  LIG1   0.1400
     33 H12       -19.3746    18.6827   -18.2910 H          1  LIG1   0.0300
     34 H13       -20.8584    17.7084   -18.1605 H          1  LIG1   0.0700
     35 H14       -19.6622    16.3197   -16.6288 H          1  LIG1   0.3900
     36 H15       -19.3050    18.2479   -20.7504 H          1  LIG1   0.0900
     37 H16       -19.3281    16.5756   -21.3595 H          1  LIG1   0.0900
     38 H17       -21.4228    15.1912   -20.2596 H          1  LIG1   0.1300
     39 H18       -23.8832    15.2542   -20.3405 H          1  LIG1   0.1300
     40 H19       -25.0476    17.3826   -20.7588 H          1  LIG1   0.1300
     41 H20       -23.7524    19.4491   -21.0980 H          1  LIG1   0.1300
     42 H21       -13.7507    17.0897   -15.9198 H          1  LIG1   0.2000
@<TRIPOS>BOND
     1    1    2 2
     2    1   25 1
     3    1   26 1
     4    2    3 1
     5    2   27 1
     6    3   24 1
     7    3    4 1
     8    4    5 2
     9    4   28 1
    10    5    6 1
    11    5   23 1
    12    6    7 1
    13    6   29 1
    14    6   30 1
    15    7    8 1
    16    7    9 1
    17    7   10 1
    18   10   11 1
    19   10   31 1
    20   10   32 1
    21   11   12 1
    22   11   13 1
    23   11   15 1
    24   13   14 1
    25   13   33 1
    26   13   34 1
    27   14   35 1
    28   15   16 1
    29   15   36 1
    30   15   37 1
    31   16   21 ar
    32   16   17 ar
    33   17   18 ar
    34   17   38 1
    35   18   19 ar
    36   18   39 1
    37   19   20 ar
    38   19   40 1
    39   20   21 ar
    40   20   41 1
    41   21   22 1
    42   23   24 2
    43   23   42 1
##########                 Name:     ZINC000662049949
##########          Protonation:                 none
##########               SMILES:   OC[C@@H]([NH2+]CC1(O)CCSCC1)C1=CC=CC(Cl)=C1Cl
##########            Long Name:   NO_LONG_NAME
##########          FlexRecCode: 1
##########               Number:                11137
##########   Ligand Source File: /nfs/db/export/3D/EF/ADRO/EFADRO.xbza.db2.gz
##########                 Rank:                    1
##########               Setnum:                   88
##########             Matchnum:                    1
##########                Cloud:                    1
##########        Electrostatic:           -44.430214
##########                 Gist:             0.000000
##########        Van der Waals:           -25.577793
##########  Ligand Polar Desolv:            11.660607
########## Ligand Apolar Desolv:            -2.645162
##########      Internal Energy:             0.000000
##########      Receptor Energy:             0.000000
########## Receptor Desolvation:             0.000000
########## Receptor Hydrophobic:             0.000000
##########         Total Energy:           -60.992565
##########        Ligand Charge:             1.000000
##########            Arbitrary:    +999.9990
##########        Ligand Energy:             0.000000

@<TRIPOS>MOLECULE
 ZINC000662049949      none
   40    41     0     0     0



@<TRIPOS>ATOM
      1 O1        -16.2167    16.2526   -19.3951 O.3        1  LIG1  -0.5700
      2 C1        -15.8981    17.3635   -18.5545 C.3        1  LIG1   0.0500
      3 C2        -16.6095    17.2054   -17.2092 C.3        1  LIG1   0.0800
      4 H1        -16.6687    18.1745   -16.7135 H          1  LIG1   0.1600
      5 N1        -17.9652    16.6848   -17.4303 N.4        1  LIG1  -0.5000
      6 H2        -17.9104    15.7879   -17.8891 H          1  LIG1   0.4400
      7 H3        -18.4344    16.5808   -16.5430 H          1  LIG1   0.4300
      8 C3        -18.7178    17.6219   -18.2751 C.3        1  LIG1   0.0000
      9 C4        -20.1299    17.0797   -18.5055 C.3        1  LIG1   0.1100
     10 O2        -20.6102    16.4892   -17.2961 O.3        1  LIG1  -0.5600
     11 C5        -21.0509    18.2297   -18.9023 C.3        1  LIG1  -0.1600
     12 C6        -22.5095    17.7655   -18.8710 C.3        1  LIG1  -0.1000
     13 S1        -22.7341    16.4517   -20.1066 S.3        1  LIG1  -0.2200
     14 C7        -21.4246    15.2738   -19.6581 C.3        1  LIG1  -0.1000
     15 C8        -20.0881    16.0185   -19.6008 C.3        1  LIG1  -0.1500
     16 C9        -15.8375    16.2442   -16.3425 C.ar       1  LIG1  -0.1100
     17 C10       -16.1201    14.8922   -16.3888 C.ar       1  LIG1  -0.1000
     18 C11       -15.4120    14.0095   -15.5944 C.ar       1  LIG1  -0.0800
     19 C12       -14.4208    14.4782   -14.7530 C.ar       1  LIG1  -0.0700
     20 C13       -14.1366    15.8313   -14.7053 C.ar       1  LIG1  -0.0200
     21 Cl1       -12.8916    16.4207   -13.6488 Cl         1  LIG1  -0.0200
     22 C14       -14.8421    16.7145   -15.5047 C.ar       1  LIG1  -0.0200
     23 Cl2       -14.4863    18.4128   -15.4466 Cl         1  LIG1  -0.0300
     24 H4        -17.1609    16.1581   -19.5810 H          1  LIG1   0.4100
     25 H5        -14.8206    17.4001   -18.3936 H          1  LIG1   0.1000
     26 H6        -16.2257    18.2866   -19.0325 H          1  LIG1   0.0800
     27 H7        -18.7770    18.5909   -17.7796 H          1  LIG1   0.1500
     28 H8        -18.2110    17.7343   -19.2336 H          1  LIG1   0.1500
     29 H9        -20.0691    15.7549   -16.9748 H          1  LIG1   0.4000
     30 H10       -20.9192    19.0564   -18.2043 H          1  LIG1   0.0700
     31 H11       -20.7992    18.5641   -19.9088 H          1  LIG1   0.1100
     32 H12       -22.7487    17.3796   -17.8800 H          1  LIG1   0.0900
     33 H13       -23.1648    18.6041   -19.1064 H          1  LIG1   0.1200
     34 H14       -21.6427    14.8394   -18.6825 H          1  LIG1   0.0900
     35 H15       -21.3710    14.4845   -20.4078 H          1  LIG1   0.1300
     36 H16       -19.8993    16.4974   -20.5617 H          1  LIG1   0.1000
     37 H17       -19.2879    15.3097   -19.3878 H          1  LIG1   0.1000
     38 H18       -16.8947    14.5249   -17.0456 H          1  LIG1   0.1300
     39 H19       -15.6338    12.9531   -15.6310 H          1  LIG1   0.1500
     40 H20       -13.8682    13.7882   -14.1324 H          1  LIG1   0.1600
@<TRIPOS>BOND
     1    1    2 1
     2    1   24 1
     3    2    3 1
     4    2   25 1
     5    2   26 1
     6    3    4 1
     7    3    5 1
     8    3   16 1
     9    5    6 1
    10    5    7 1
    11    5    8 1
    12    8    9 1
    13    8   27 1
    14    8   28 1
    15    9   15 1
    16    9   10 1
    17    9   11 1
    18   10   29 1
    19   11   12 1
    20   11   30 1
    21   11   31 1
    22   12   13 1
    23   12   32 1
    24   12   33 1
    25   13   14 1
    26   14   15 1
    27   14   34 1
    28   14   35 1
    29   15   36 1
    30   15   37 1
    31   16   22 ar
    32   16   17 ar
    33   17   18 ar
    34   17   38 1
    35   18   19 ar
    36   18   39 1
    37   19   20 ar
    38   19   40 1
    39   20   21 1
    40   20   22 ar
    41   22   23 1
##########                 Name:     ZINC000102930897
##########          Protonation:                 none
##########               SMILES:   CCc1ccc(CNC(=O)C[N@@H+]2CCCC2(C)C)s1
##########            Long Name:   NO_LONG_NAME
##########          FlexRecCode: 1
##########               Number:                 6931
##########   Ligand Source File: /nfs/db/export/3D/CF/ADRO/CFADRO.xcmd.db2.gz
##########                 Rank:                    1
##########               Setnum:                  319
##########             Matchnum:                    1
##########                Cloud:                    1
##########        Electrostatic:           -43.651665
##########                 Gist:             0.000000
##########        Van der Waals:           -24.905378
##########  Ligand Polar Desolv:            12.327645
########## Ligand Apolar Desolv:            -4.765396
##########      Internal Energy:             0.000000
##########      Receptor Energy:             0.000000
########## Receptor Desolvation:             0.000000
########## Receptor Hydrophobic:             0.000000
##########         Total Energy:           -60.994797
##########        Ligand Charge:             1.000000
##########            Arbitrary:    +999.9990
##########        Ligand Energy:             0.000000

@<TRIPOS>MOLECULE
 ZINC000102930897      none
   44    45     0     0     0



@<TRIPOS>ATOM
      1 C1        -12.9261    13.1652   -12.2367 C.3        1  LIG1  -0.1500
      2 C2        -14.4026    12.8111   -12.4251 C.3        1  LIG1  -0.0600
      3 C3        -14.9514    13.5603   -13.6119 C.2        1  LIG1  -0.1500
      4 C4        -15.7268    13.0349   -14.5616 C.2        1  LIG1  -0.1500
      5 C5        -16.1110    13.9179   -15.5559 C.2        1  LIG1  -0.0900
      6 C6        -15.6475    15.1607   -15.4137 C.2        1  LIG1  -0.2400
      7 C7        -15.9219    16.3035   -16.3569 C.3        1  LIG1   0.2000
      8 N1        -17.3452    16.3195   -16.7036 N.am       1  LIG1  -0.7000
      9 C8        -17.9548    17.4857   -16.9947 C.2        1  LIG1   0.5000
     10 O1        -17.3250    18.5219   -16.9697 O.2        1  LIG1  -0.5300
     11 C9        -19.4188    17.5023   -17.3512 C.3        1  LIG1  -0.0400
     12 N2        -19.6413    16.6777   -18.5464 N.4        1  LIG1  -0.3700
     13 H1        -19.3525    15.7285   -18.3634 H          1  LIG1   0.4300
     14 C10       -18.8647    17.2243   -19.6795 C.3        1  LIG1  -0.0100
     15 C11       -19.7637    16.9983   -20.9207 C.3        1  LIG1  -0.1400
     16 C12       -21.1765    17.2624   -20.3366 C.3        1  LIG1  -0.1300
     17 C13       -21.0709    16.7009   -18.9062 C.3        1  LIG1   0.0500
     18 C14       -21.6376    15.2803   -18.8616 C.3        1  LIG1  -0.1700
     19 C15       -21.8379    17.6011   -17.9356 C.3        1  LIG1  -0.1800
     20 S1        -14.6737    15.2634   -13.9525 S.3        1  LIG1   0.1200
     21 H2        -12.5291    12.6233   -11.3784 H          1  LIG1   0.0700
     22 H3        -12.3688    12.8873   -13.1314 H          1  LIG1   0.0600
     23 H4        -12.8285    14.2374   -12.0663 H          1  LIG1   0.0600
     24 H5        -14.5002    11.7389   -12.5954 H          1  LIG1   0.0900
     25 H6        -14.9598    13.0890   -11.5304 H          1  LIG1   0.0800
     26 H7        -16.0315    11.9988   -14.5553 H          1  LIG1   0.1500
     27 H8        -16.7381    13.6231   -16.3842 H          1  LIG1   0.1400
     28 H9        -15.6546    17.2440   -15.8756 H          1  LIG1   0.0900
     29 H10       -15.3287    16.1774   -17.2627 H          1  LIG1   0.1000
     30 H11       -17.8489    15.4908   -16.7237 H          1  LIG1   0.4100
     31 H12       -19.9997    17.1020   -16.5204 H          1  LIG1   0.1600
     32 H13       -19.7321    18.5267   -17.5531 H          1  LIG1   0.1600
     33 H14       -18.6790    18.2884   -19.5342 H          1  LIG1   0.1300
     34 H15       -17.9236    16.6855   -19.7896 H          1  LIG1   0.1400
     35 H16       -19.5274    17.7129   -21.7092 H          1  LIG1   0.1200
     36 H17       -19.6768    15.9746   -21.2847 H          1  LIG1   0.1000
     37 H18       -21.3911    18.3309   -20.3151 H          1  LIG1   0.1000
     38 H19       -21.9356    16.7273   -20.9070 H          1  LIG1   0.1100
     39 H20       -22.6943    15.3021   -19.1282 H          1  LIG1   0.0800
     40 H21       -21.0972    14.6512   -19.5690 H          1  LIG1   0.0800
     41 H22       -21.5248    14.8756   -17.8558 H          1  LIG1   0.1100
     42 H23       -22.8934    17.6131   -18.2079 H          1  LIG1   0.1100
     43 H24       -21.7288    17.2178   -16.9210 H          1  LIG1   0.0800
     44 H25       -21.4382    18.6139   -17.9863 H          1  LIG1   0.0800
@<TRIPOS>BOND
     1    1    2 1
     2    1   21 1
     3    1   22 1
     4    1   23 1
     5    2    3 1
     6    2   24 1
     7    2   25 1
     8    3   20 1
     9    3    4 2
    10    4    5 1
    11    4   26 1
    12    5    6 2
    13    5   27 1
    14    6    7 1
    15    6   20 1
    16    7    8 1
    17    7   28 1
    18    7   29 1
    19    8    9 am
    20    8   30 1
    21    9   10 2
    22    9   11 1
    23   11   12 1
    24   11   31 1
    25   11   32 1
    26   12   13 1
    27   12   17 1
    28   12   14 1
    29   14   15 1
    30   14   33 1
    31   14   34 1
    32   15   16 1
    33   15   35 1
    34   15   36 1
    35   16   17 1
    36   16   37 1
    37   16   38 1
    38   17   18 1
    39   17   19 1
    40   18   39 1
    41   18   40 1
    42   18   41 1
    43   19   42 1
    44   19   43 1
    45   19   44 1
##########                 Name:     ZINC000451439685
##########          Protonation:                 none
##########               SMILES:   CCOCCCNC(=O)[C@@H](C)[N@H+]1CC[C@@](O)(C(F)F)C1
##########            Long Name:   NO_LONG_NAME
##########          FlexRecCode: 1
##########               Number:                 4579
##########   Ligand Source File: /nfs/db/export/3D/CC/ADMO/CCADMO.xaac.db2.gz
##########                 Rank:                    1
##########               Setnum:                   35
##########             Matchnum:                    1
##########                Cloud:                    1
##########        Electrostatic:           -51.850086
##########                 Gist:             0.000000
##########        Van der Waals:           -21.388885
##########  Ligand Polar Desolv:            13.070116
########## Ligand Apolar Desolv:            -0.812894
##########      Internal Energy:             0.000000
##########      Receptor Energy:             0.000000
########## Receptor Desolvation:             0.000000
########## Receptor Hydrophobic:             0.000000
##########         Total Energy:           -60.981747
##########        Ligand Charge:             1.000000
##########            Arbitrary:    +999.9990
##########        Ligand Energy:             0.000000

@<TRIPOS>MOLECULE
 ZINC000451439685      none
   45    45     0     0     0



@<TRIPOS>ATOM
      1 C1        -13.3309    15.5604   -10.8881 C.3        1  LIG1  -0.1500
      2 C2        -13.6508    14.3014   -11.6966 C.3        1  LIG1   0.0600
      3 O1        -14.2084    14.6746   -12.9584 O.3        1  LIG1  -0.3900
      4 C3        -14.5445    13.5665   -13.7957 C.3        1  LIG1   0.0600
      5 C4        -15.1296    14.0814   -15.1125 C.3        1  LIG1  -0.1300
      6 C5        -16.3875    14.9034   -14.8248 C.3        1  LIG1   0.1200
      7 N1        -16.9476    15.3963   -16.0855 N.am       1  LIG1  -0.7000
      8 C6        -16.5546    16.5880   -16.5773 C.2        1  LIG1   0.5100
      9 O2        -15.7372    17.2523   -15.9760 O.2        1  LIG1  -0.5200
     10 C7        -17.1309    17.0952   -17.8740 C.3        1  LIG1   0.0100
     11 H1        -17.1524    18.1850   -17.8605 H          1  LIG1   0.1700
     12 C8        -16.2630    16.6167   -19.0397 C.3        1  LIG1  -0.1800
     13 N2        -18.4971    16.5806   -18.0372 N.4        1  LIG1  -0.3800
     14 H2        -18.4899    15.5717   -18.0512 H          1  LIG1   0.4400
     15 C9        -19.3606    17.0694   -16.9405 C.3        1  LIG1   0.0000
     16 C10       -20.7573    17.3154   -17.5408 C.3        1  LIG1  -0.1700
     17 C11       -20.6192    16.9673   -19.0407 C.3        1  LIG1   0.0700
     18 O3        -21.0517    15.6285   -19.2909 O.3        1  LIG1  -0.5300
     19 C12       -21.4061    17.9581   -19.9011 C.3        1  LIG1   0.2500
     20 F1        -20.9152    19.2511   -19.6902 F          1  LIG1  -0.1800
     21 F2        -21.2633    17.6193   -21.2510 F          1  LIG1  -0.1900
     22 C13       -19.0958    17.1059   -19.2910 C.3        1  LIG1   0.0100
     23 H3        -12.9056    15.2758    -9.9256 H          1  LIG1   0.0800
     24 H4        -12.6137    16.1715   -11.4359 H          1  LIG1   0.0600
     25 H5        -14.2457    16.1307   -10.7267 H          1  LIG1   0.0600
     26 H6        -12.7360    13.7310   -11.8579 H          1  LIG1   0.0500
     27 H7        -14.3682    13.6904   -11.1488 H          1  LIG1   0.0500
     28 H8        -13.6484    12.9809   -14.0007 H          1  LIG1   0.0500
     29 H9        -15.2804    12.9402   -13.2915 H          1  LIG1   0.0500
     30 H10       -14.3936    14.7078   -15.6166 H          1  LIG1   0.0800
     31 H11       -15.3859    13.2362   -15.7512 H          1  LIG1   0.0800
     32 H12       -17.1233    14.2770   -14.3205 H          1  LIG1   0.0800
     33 H13       -16.1311    15.7484   -14.1860 H          1  LIG1   0.0800
     34 H14       -17.6013    14.8649   -16.5663 H          1  LIG1   0.4100
     35 H15       -16.6799    16.9836   -19.9776 H          1  LIG1   0.1100
     36 H16       -15.2493    16.9988   -18.9185 H          1  LIG1   0.0900
     37 H17       -16.2414    15.5271   -19.0533 H          1  LIG1   0.1000
     38 H18       -19.4219    16.3181   -16.1532 H          1  LIG1   0.1500
     39 H19       -18.9598    18.0002   -16.5390 H          1  LIG1   0.1300
     40 H20       -21.4924    16.6646   -17.0674 H          1  LIG1   0.1200
     41 H21       -21.0424    18.3605   -17.4196 H          1  LIG1   0.1200
     42 H22       -20.5523    14.9568   -18.8068 H          1  LIG1   0.4100
     43 H23       -22.4601    17.9202   -19.6265 H          1  LIG1   0.1400
     44 H24       -18.8236    18.1511   -19.4376 H          1  LIG1   0.1600
     45 H25       -18.7903    16.5040   -20.1468 H          1  LIG1   0.1600
@<TRIPOS>BOND
     1    1    2 1
     2    1   23 1
     3    1   24 1
     4    1   25 1
     5    2    3 1
     6    2   26 1
     7    2   27 1
     8    3    4 1
     9    4    5 1
    10    4   28 1
    11    4   29 1
    12    5    6 1
    13    5   30 1
    14    5   31 1
    15    6    7 1
    16    6   32 1
    17    6   33 1
    18    7    8 am
    19    7   34 1
    20    8    9 2
    21    8   10 1
    22   10   11 1
    23   10   12 1
    24   10   13 1
    25   12   35 1
    26   12   36 1
    27   12   37 1
    28   13   14 1
    29   13   22 1
    30   13   15 1
    31   15   16 1
    32   15   38 1
    33   15   39 1
    34   16   17 1
    35   16   40 1
    36   16   41 1
    37   17   18 1
    38   17   19 1
    39   17   22 1
    40   18   42 1
    41   19   20 1
    42   19   21 1
    43   19   43 1
    44   22   44 1
    45   22   45 1
##########                 Name:     ZINC000363554822
##########          Protonation:                 none
##########               SMILES:   O=C1C[C@H](NC2=C3C=CNC3=NC=[NH+]2)CN1[C@@H]1C[C@H]1C1=CC=CC=C1
##########            Long Name:   NO_LONG_NAME
##########          FlexRecCode: 1
##########               Number:                 2284
##########   Ligand Source File: /nfs/db/export/3D/EF/ADMO/EFADMO.xbcl.db2.gz
##########                 Rank:                    1
##########               Setnum:                   78
##########             Matchnum:                    1
##########                Cloud:                    1
##########        Electrostatic:           -46.433228
##########                 Gist:             0.000000
##########        Van der Waals:           -32.810577
##########  Ligand Polar Desolv:            23.685671
########## Ligand Apolar Desolv:            -5.435189
##########      Internal Energy:             0.000000
##########      Receptor Energy:             0.000000
########## Receptor Desolvation:             0.000000
########## Receptor Hydrophobic:             0.000000
##########         Total Energy:           -60.993324
##########        Ligand Charge:             1.000000
##########            Arbitrary:    +999.9990
##########        Ligand Energy:             0.000000

@<TRIPOS>MOLECULE
 ZINC000363554822      none
   45    49     0     0     0



@<TRIPOS>ATOM
      1 O1        -17.1360    19.5154   -16.9374 O.2        1  LIG1  -0.5000
      2 C1        -16.8685    18.3325   -16.9497 C.2        1  LIG1   0.5200
      3 C2        -16.4678    17.5221   -15.7367 C.3        1  LIG1  -0.1800
      4 C3        -16.6500    16.0534   -16.1849 C.3        1  LIG1   0.1000
      5 H1        -17.6390    15.6832   -15.9150 H          1  LIG1   0.1200
      6 N1        -15.6016    15.1994   -15.6212 N.pl3      1  LIG1  -0.6700
      7 C4        -15.8647    13.8688   -15.3500 C.ar       1  LIG1   0.5400
      8 C5        -15.2070    13.2043   -14.3039 C.ar       1  LIG1  -0.2400
      9 C6        -14.2037    13.5773   -13.3084 C.2        1  LIG1  -0.1400
     10 C7        -13.9686    12.4837   -12.5653 C.2        1  LIG1   0.0800
     11 N2        -14.7438    11.4442   -13.0102 N.pl3      1  LIG1  -0.5300
     12 C8        -15.5097    11.8504   -14.0682 C.ar       1  LIG1   0.3500
     13 N3        -16.4097    11.2541   -14.8483 N.ar       1  LIG1  -0.4800
     14 C9        -17.0026    11.9167   -15.8179 C.ar       1  LIG1   0.3900
     15 N4        -16.7516    13.1886   -16.0707 N.ar       1  LIG1  -0.5600
     16 H2        -17.2163    13.6315   -16.7980 H          1  LIG1   0.4400
     17 C10       -16.5032    16.1714   -17.7181 C.3        1  LIG1   0.1100
     18 N5        -16.8906    17.5495   -18.0421 N.am       1  LIG1  -0.5900
     19 C11       -17.2466    18.0141   -19.3851 C.3        1  LIG1   0.0900
     20 H3        -18.2494    18.4284   -19.4888 H          1  LIG1   0.1400
     21 C12       -16.6755    17.2400   -20.5749 C.3        1  LIG1  -0.1700
     22 C13       -16.1355    18.6317   -20.2366 C.3        1  LIG1  -0.1100
     23 H4        -15.1396    18.6922   -19.7978 H          1  LIG1   0.1100
     24 C14       -16.5111    19.7660   -21.1551 C.ar       1  LIG1  -0.0600
     25 C15       -15.5813    20.7407   -21.4653 C.ar       1  LIG1  -0.1200
     26 C16       -15.9257    21.7812   -22.3078 C.ar       1  LIG1  -0.1100
     27 C17       -17.1997    21.8466   -22.8404 C.ar       1  LIG1  -0.1200
     28 C18       -18.1291    20.8714   -22.5309 C.ar       1  LIG1  -0.1200
     29 C19       -17.7834    19.8286   -21.6917 C.ar       1  LIG1  -0.1100
     30 H5        -15.4272    17.7149   -15.4758 H          1  LIG1   0.1200
     31 H6        -17.1215    17.7477   -14.8943 H          1  LIG1   0.1200
     32 H7        -14.7228    15.5671   -15.4383 H          1  LIG1   0.4400
     33 H8        -13.7407    14.5462   -13.1929 H          1  LIG1   0.1700
     34 H9        -13.2726    12.4308   -11.7411 H          1  LIG1   0.2100
     35 H10       -14.7485    10.5516   -12.6305 H          1  LIG1   0.4400
     36 H11       -17.7270    11.4003   -16.4304 H          1  LIG1   0.2500
     37 H12       -15.4705    15.9865   -18.0136 H          1  LIG1   0.0900
     38 H13       -17.1705    15.4679   -18.2161 H          1  LIG1   0.1100
     39 H14       -16.0351    16.3850   -20.3584 H          1  LIG1   0.1400
     40 H15       -17.3027    17.1453   -21.4615 H          1  LIG1   0.1100
     41 H16       -14.5860    20.6895   -21.0493 H          1  LIG1   0.1200
     42 H17       -15.1994    22.5432   -22.5498 H          1  LIG1   0.1300
     43 H18       -17.4689    22.6599   -23.4980 H          1  LIG1   0.1300
     44 H19       -19.1245    20.9226   -22.9466 H          1  LIG1   0.1200
     45 H20       -18.5096    19.0667   -21.4499 H          1  LIG1   0.1200
@<TRIPOS>BOND
     1    1    2 2
     2    2   18 am
     3    2    3 1
     4    3    4 1
     5    3   30 1
     6    3   31 1
     7    4    5 1
     8    4    6 1
     9    4   17 1
    10    6    7 1
    11    6   32 1
    12    7   15 ar
    13    7    8 ar
    14    8   12 ar
    15    8    9 1
    16    9   10 2
    17    9   33 1
    18   10   11 1
    19   10   34 1
    20   11   12 1
    21   11   35 1
    22   12   13 ar
    23   13   14 ar
    24   14   15 ar
    25   14   36 1
    26   15   16 1
    27   17   18 1
    28   17   37 1
    29   17   38 1
    30   18   19 1
    31   19   20 1
    32   19   22 1
    33   19   21 1
    34   21   22 1
    35   21   39 1
    36   21   40 1
    37   22   23 1
    38   22   24 1
    39   24   29 ar
    40   24   25 ar
    41   25   26 ar
    42   25   41 1
    43   26   27 ar
    44   26   42 1
    45   27   28 ar
    46   27   43 1
    47   28   29 ar
    48   28   44 1
    49   29   45 1
##########                 Name:     ZINC000358506216
##########          Protonation:                 none
##########               SMILES:   OC[C@H](CC1=CC=C(F)C=C1)[NH2+]CC1=NN(C2=CC=CC=C2)C=C1
##########            Long Name:   NO_LONG_NAME
##########          FlexRecCode: 1
##########               Number:                 3554
##########   Ligand Source File: /nfs/db/export/3D/EF/ADRO/EFADRO.xcmt.db2.gz
##########                 Rank:                    1
##########               Setnum:                  108
##########             Matchnum:                    1
##########                Cloud:                    1
##########        Electrostatic:           -35.825623
##########                 Gist:             0.000000
##########        Van der Waals:           -33.300022
##########  Ligand Polar Desolv:            13.200534
########## Ligand Apolar Desolv:            -5.058399
##########      Internal Energy:             0.000000
##########      Receptor Energy:             0.000000
########## Receptor Desolvation:             0.000000
########## Receptor Hydrophobic:             0.000000
##########         Total Energy:           -60.983505
##########        Ligand Charge:             1.000000
##########            Arbitrary:    +999.9990
##########        Ligand Energy:             0.000000

@<TRIPOS>MOLECULE
 ZINC000358506216      none
   45    47     0     0     0



@<TRIPOS>ATOM
      1 O1        -16.4992    16.6873   -20.2990 O.3        1  LIG1  -0.5800
      2 C1        -17.6447    17.5117   -20.0738 C.3        1  LIG1   0.0500
      3 C2        -18.5481    16.8547   -19.0284 C.3        1  LIG1   0.0400
      4 H1        -19.1440    16.0745   -19.5021 H          1  LIG1   0.1500
      5 C3        -19.4770    17.9087   -18.4224 C.3        1  LIG1  -0.0900
      6 C4        -20.6314    18.1587   -19.3584 C.ar       1  LIG1  -0.1400
      7 C5        -20.5314    19.1339   -20.3332 C.ar       1  LIG1  -0.0700
      8 C6        -21.5892    19.3641   -21.1921 C.ar       1  LIG1  -0.1400
      9 C7        -22.7495    18.6174   -21.0763 C.ar       1  LIG1   0.1200
     10 F1        -23.7841    18.8413   -21.9157 F          1  LIG1  -0.1300
     11 C8        -22.8483    17.6408   -20.0998 C.ar       1  LIG1  -0.1400
     12 C9        -21.7873    17.4090   -19.2451 C.ar       1  LIG1  -0.1100
     13 N1        -17.7209    16.2634   -17.9683 N.4        1  LIG1  -0.5100
     14 H2        -18.3168    15.8302   -17.2788 H          1  LIG1   0.4400
     15 H3        -17.1082    15.5684   -18.3679 H          1  LIG1   0.4300
     16 C10       -16.9178    17.3150   -17.3299 C.3        1  LIG1   0.0900
     17 C11       -16.0691    16.7084   -16.2423 C.2        1  LIG1   0.0000
     18 N2        -16.0367    15.4428   -15.9107 N.2        1  LIG1  -0.2500
     19 N3        -15.1250    15.2889   -14.8585 N.pl3      1  LIG1  -0.2900
     20 C12       -14.8009    14.0854   -14.2168 C.ar       1  LIG1   0.1300
     21 C13       -13.8792    14.0768   -13.1786 C.ar       1  LIG1  -0.1300
     22 C14       -13.5619    12.8894   -12.5483 C.ar       1  LIG1  -0.0900
     23 C15       -14.1609    11.7099   -12.9508 C.ar       1  LIG1  -0.1100
     24 C16       -15.0790    11.7152   -13.9849 C.ar       1  LIG1  -0.1000
     25 C17       -15.4053    12.9004   -14.6144 C.ar       1  LIG1  -0.1100
     26 C18       -14.6124    16.5069   -14.5714 C.2        1  LIG1   0.0700
     27 C19       -15.1757    17.4003   -15.4174 C.2        1  LIG1  -0.2400
     28 H4        -16.7102    15.8004   -20.6212 H          1  LIG1   0.4100
     29 H5        -17.3236    18.4892   -19.7140 H          1  LIG1   0.1000
     30 H6        -18.1955    17.6310   -21.0068 H          1  LIG1   0.0700
     31 H7        -19.8564    17.5513   -17.4650 H          1  LIG1   0.1100
     32 H8        -18.9246    18.8360   -18.2710 H          1  LIG1   0.1200
     33 H9        -19.6262    19.7161   -20.4234 H          1  LIG1   0.1400
     34 H10       -21.5111    20.1264   -21.9533 H          1  LIG1   0.1500
     35 H11       -23.7529    17.0580   -20.0084 H          1  LIG1   0.1400
     36 H12       -21.8641    16.6471   -18.4836 H          1  LIG1   0.1300
     37 H13       -16.2741    17.7832   -18.0745 H          1  LIG1   0.1500
     38 H14       -17.5796    18.0659   -16.8981 H          1  LIG1   0.1500
     39 H15       -13.4105    14.9976   -12.8642 H          1  LIG1   0.1300
     40 H16       -12.8449    12.8822   -11.7407 H          1  LIG1   0.1400
     41 H17       -13.9111    10.7827   -12.4567 H          1  LIG1   0.1400
     42 H18       -15.5448    10.7923   -14.2974 H          1  LIG1   0.1400
     43 H19       -16.1225    12.9039   -15.4220 H          1  LIG1   0.1400
     44 H20       -13.8810    16.7264   -13.8076 H          1  LIG1   0.1900
     45 H21       -14.9763    18.4614   -15.4457 H          1  LIG1   0.1700
@<TRIPOS>BOND
     1    1    2 1
     2    1   28 1
     3    2    3 1
     4    2   29 1
     5    2   30 1
     6    3    4 1
     7    3    5 1
     8    3   13 1
     9    5    6 1
    10    5   31 1
    11    5   32 1
    12    6   12 ar
    13    6    7 ar
    14    7    8 ar
    15    7   33 1
    16    8    9 ar
    17    8   34 1
    18    9   10 1
    19    9   11 ar
    20   11   12 ar
    21   11   35 1
    22   12   36 1
    23   13   14 1
    24   13   15 1
    25   13   16 1
    26   16   17 1
    27   16   37 1
    28   16   38 1
    29   17   27 1
    30   17   18 2
    31   18   19 1
    32   19   20 1
    33   19   26 1
    34   20   25 ar
    35   20   21 ar
    36   21   22 ar
    37   21   39 1
    38   22   23 ar
    39   22   40 1
    40   23   24 ar
    41   23   41 1
    42   24   25 ar
    43   24   42 1
    44   25   43 1
    45   26   27 2
    46   26   44 1
    47   27   45 1
##########                 Name:     ZINC000364862581
##########          Protonation:                 none
##########               SMILES:   CC1=CSC(NC(=O)C2CC[NH+]([C@H]3CCC(C)(C)C3)CC2)=N1
##########            Long Name:   NO_LONG_NAME
##########          FlexRecCode: 1
##########               Number:                12021
##########   Ligand Source File: /nfs/db/export/3D/DH/ADRO/DHADRO.xic.db2.gz
##########                 Rank:                    1
##########               Setnum:                   31
##########             Matchnum:                    1
##########                Cloud:                    1
##########        Electrostatic:           -39.159237
##########                 Gist:             0.000000
##########        Van der Waals:           -32.117142
##########  Ligand Polar Desolv:            15.799388
########## Ligand Apolar Desolv:            -5.521374
##########      Internal Energy:             0.000000
##########      Receptor Energy:             0.000000
########## Receptor Desolvation:             0.000000
########## Receptor Hydrophobic:             0.000000
##########         Total Energy:           -60.998367
##########        Ligand Charge:             1.000000
##########            Arbitrary:    +999.9990
##########        Ligand Energy:             0.000000

@<TRIPOS>MOLECULE
 ZINC000364862581      none
   50    52     0     0     0



@<TRIPOS>ATOM
      1 C1        -14.3410    10.7314   -12.2258 C.3        1  LIG1  -0.0800
      2 C2        -14.1910    12.1235   -12.7834 C.2        1  LIG1   0.0900
      3 C3        -13.1674    12.9199   -12.4691 C.2        1  LIG1  -0.3000
      4 S1        -13.3753    14.4423   -13.3309 S.3        1  LIG1   0.2400
      5 C4        -14.8216    13.8596   -14.0323 C.2        1  LIG1   0.2200
      6 N1        -15.6234    14.5750   -14.9139 N.am       1  LIG1  -0.6200
      7 C5        -15.2814    15.8291   -15.2697 C.2        1  LIG1   0.5200
      8 O1        -14.2740    16.3335   -14.8206 O.2        1  LIG1  -0.4900
      9 C6        -16.1507    16.6047   -16.2257 C.3        1  LIG1  -0.1100
     10 C7        -16.2470    15.8521   -17.5558 C.3        1  LIG1  -0.1400
     11 C8        -17.1941    16.6039   -18.4936 C.3        1  LIG1   0.0000
     12 N2        -18.5257    16.6922   -17.8822 N.4        1  LIG1  -0.3800
     13 H1        -18.8613    15.7638   -17.6741 H          1  LIG1   0.4200
     14 C9        -19.4498    17.3472   -18.8177 C.3        1  LIG1   0.0200
     15 H2        -19.1011    18.3519   -19.0563 H          1  LIG1   0.1400
     16 C10       -19.6015    16.5050   -20.1087 C.3        1  LIG1  -0.1400
     17 C11       -20.9749    16.9651   -20.6575 C.3        1  LIG1  -0.1200
     18 C12       -21.8436    17.1501   -19.3962 C.3        1  LIG1  -0.0600
     19 C13       -22.7687    18.3564   -19.5692 C.3        1  LIG1  -0.1500
     20 C14       -22.6705    15.8886   -19.1396 C.3        1  LIG1  -0.1500
     21 C15       -20.8732    17.3962   -18.2249 C.3        1  LIG1  -0.1400
     22 C16       -18.4535    17.4743   -16.6423 C.3        1  LIG1  -0.0100
     23 C17       -17.5548    16.7560   -15.6333 C.3        1  LIG1  -0.1300
     24 N3        -15.0584    12.6515   -13.6266 N.2        1  LIG1  -0.5000
     25 H3        -13.5087    10.5170   -11.5554 H          1  LIG1   0.0800
     26 H4        -15.2788    10.6598   -11.6750 H          1  LIG1   0.0800
     27 H5        -14.3439    10.0109   -13.0436 H          1  LIG1   0.0800
     28 H6        -12.3539    12.6741   -11.8026 H          1  LIG1   0.1800
     29 H7        -16.4291    14.1716   -15.2731 H          1  LIG1   0.4200
     30 H8        -15.7179    17.5908   -16.3939 H          1  LIG1   0.1300
     31 H9        -15.2586    15.7891   -18.0109 H          1  LIG1   0.1200
     32 H10       -16.6316    14.8476   -17.3788 H          1  LIG1   0.1000
     33 H11       -16.8085    17.6080   -18.6702 H          1  LIG1   0.1300
     34 H12       -17.2648    16.0708   -19.4417 H          1  LIG1   0.1400
     35 H13       -18.8055    16.7364   -20.8165 H          1  LIG1   0.1000
     36 H14       -19.6156    15.4403   -19.8760 H          1  LIG1   0.0900
     37 H15       -20.8747    17.9090   -21.1936 H          1  LIG1   0.0800
     38 H16       -21.4021    16.2004   -21.3061 H          1  LIG1   0.0900
     39 H17       -23.3778    18.4786   -18.6736 H          1  LIG1   0.0700
     40 H18       -22.1702    19.2537   -19.7268 H          1  LIG1   0.0600
     41 H19       -23.4173    18.1965   -20.4306 H          1  LIG1   0.0600
     42 H20       -23.2804    16.0293   -18.2471 H          1  LIG1   0.0600
     43 H21       -23.3178    15.6982   -19.9956 H          1  LIG1   0.0600
     44 H22       -22.0025    15.0399   -18.9932 H          1  LIG1   0.0700
     45 H23       -20.9899    16.6157   -17.4731 H          1  LIG1   0.0900
     46 H24       -21.0633    18.3736   -17.7816 H          1  LIG1   0.1000
     47 H25       -18.0410    18.4599   -16.8583 H          1  LIG1   0.1300
     48 H26       -19.4539    17.5840   -16.2236 H          1  LIG1   0.1400
     49 H27       -17.9665    15.7704   -15.4163 H          1  LIG1   0.1000
     50 H28       -17.5011    17.3392   -14.7140 H          1  LIG1   0.1200
@<TRIPOS>BOND
     1    1    2 1
     2    1   25 1
     3    1   26 1
     4    1   27 1
     5    2   24 1
     6    2    3 2
     7    3    4 1
     8    3   28 1
     9    4    5 1
    10    5    6 1
    11    5   24 2
    12    6    7 am
    13    6   29 1
    14    7    8 2
    15    7    9 1
    16    9   23 1
    17    9   10 1
    18    9   30 1
    19   10   11 1
    20   10   31 1
    21   10   32 1
    22   11   12 1
    23   11   33 1
    24   11   34 1
    25   12   13 1
    26   12   14 1
    27   12   22 1
    28   14   15 1
    29   14   21 1
    30   14   16 1
    31   16   17 1
    32   16   35 1
    33   16   36 1
    34   17   18 1
    35   17   37 1
    36   17   38 1
    37   18   19 1
    38   18   20 1
    39   18   21 1
    40   19   39 1
    41   19   40 1
    42   19   41 1
    43   20   42 1
    44   20   43 1
    45   20   44 1
    46   21   45 1
    47   21   46 1
    48   22   23 1
    49   22   47 1
    50   22   48 1
    51   23   49 1
    52   23   50 1
##########                 Name:     ZINC000300952679
##########          Protonation:                 none
##########               SMILES:   CC1=CC=C(I)C=C1NC(=O)C[NH2+]C1CC1
##########            Long Name:   NO_LONG_NAME
##########          FlexRecCode: 1
##########               Number:                 9099
##########   Ligand Source File: /nfs/db/export/3D/EE/ADRO/EEADRO.xcuq.db2.gz
##########                 Rank:                    1
##########               Setnum:                   38
##########             Matchnum:                    1
##########                Cloud:                    1
##########        Electrostatic:           -48.680538
##########                 Gist:             0.000000
##########        Van der Waals:           -23.917305
##########  Ligand Polar Desolv:            16.063019
########## Ligand Apolar Desolv:            -4.460467
##########      Internal Energy:             0.000000
##########      Receptor Energy:             0.000000
########## Receptor Desolvation:             0.000000
########## Receptor Hydrophobic:             0.000000
##########         Total Energy:           -60.995285
##########        Ligand Charge:             1.000000
##########            Arbitrary:    +999.9990
##########        Ligand Energy:             0.000000

@<TRIPOS>MOLECULE
 ZINC000300952679      none
   32    33     0     0     0



@<TRIPOS>ATOM
      1 C1        -16.8714    12.0953   -15.9408 C.3        1  LIG1  -0.1200
      2 C2        -15.8702    12.7364   -15.0148 C.ar       1  LIG1  -0.0800
      3 C3        -14.9355    11.9575   -14.3617 C.ar       1  LIG1  -0.1000
      4 C4        -14.0162    12.5448   -13.5118 C.ar       1  LIG1  -0.0800
      5 C5        -14.0297    13.9135   -13.3129 C.ar       1  LIG1  -0.0900
      6 I1        -12.6348    14.7979   -12.0242 I          1  LIG1  -0.0200
      7 C6        -14.9625    14.6983   -13.9642 C.ar       1  LIG1  -0.0800
      8 C7        -15.8831    14.1118   -14.8221 C.ar       1  LIG1   0.1200
      9 N1        -16.8285    14.9035   -15.4834 N.am       1  LIG1  -0.6400
     10 C8        -16.5307    16.1766   -15.8109 C.2        1  LIG1   0.5000
     11 O1        -15.4433    16.6359   -15.5324 O.2        1  LIG1  -0.5100
     12 C9        -17.5490    17.0292   -16.5230 C.3        1  LIG1  -0.0200
     13 N2        -17.8989    16.4053   -17.8060 N.4        1  LIG1  -0.4700
     14 H1        -17.0709    16.3228   -18.3769 H          1  LIG1   0.4300
     15 H2        -18.2854    15.4882   -17.6396 H          1  LIG1   0.4400
     16 C10       -18.8915    17.2364   -18.5002 C.3        1  LIG1  -0.0900
     17 C11       -19.9055    16.5243   -19.3977 C.3        1  LIG1  -0.1500
     18 C12       -20.3507    17.1123   -18.0573 C.3        1  LIG1  -0.1500
     19 H3        -16.7074    11.0179   -15.9638 H          1  LIG1   0.0800
     20 H4        -17.8806    12.3014   -15.5839 H          1  LIG1   0.0800
     21 H5        -16.7510    12.5027   -16.9446 H          1  LIG1   0.0600
     22 H6        -14.9225    10.8884   -14.5144 H          1  LIG1   0.1400
     23 H7        -13.2865    11.9334   -13.0017 H          1  LIG1   0.1400
     24 H8        -14.9730    15.7669   -13.8085 H          1  LIG1   0.1500
     25 H9        -17.6982    14.5362   -15.7060 H          1  LIG1   0.4200
     26 H10       -18.4434    17.1183   -15.9065 H          1  LIG1   0.1700
     27 H11       -17.1314    18.0199   -16.7028 H          1  LIG1   0.1700
     28 H12       -18.5432    18.2198   -18.8157 H          1  LIG1   0.1800
     29 H13       -20.2244    17.0390   -20.3040 H          1  LIG1   0.1400
     30 H14       -19.8362    15.4390   -19.4730 H          1  LIG1   0.1200
     31 H15       -20.5742    16.4140   -17.2507 H          1  LIG1   0.1200
     32 H16       -20.9625    18.0142   -18.0817 H          1  LIG1   0.1400
@<TRIPOS>BOND
     1    1    2 1
     2    1   19 1
     3    1   20 1
     4    1   21 1
     5    2    8 ar
     6    2    3 ar
     7    3    4 ar
     8    3   22 1
     9    4    5 ar
    10    4   23 1
    11    5    6 1
    12    5    7 ar
    13    7    8 ar
    14    7   24 1
    15    8    9 1
    16    9   10 am
    17    9   25 1
    18   10   11 2
    19   10   12 1
    20   12   13 1
    21   12   26 1
    22   12   27 1
    23   13   14 1
    24   13   15 1
    25   13   16 1
    26   16   18 1
    27   16   17 1
    28   16   28 1
    29   17   18 1
    30   17   29 1
    31   17   30 1
    32   18   31 1
    33   18   32 1
##########                 Name:     ZINC000449156693
##########          Protonation:                 none
##########               SMILES:   CCC(CC)[C@@H](O)C[NH2+]Cc1cnc(-c2ccccc2F)s1
##########            Long Name:   NO_LONG_NAME
##########          FlexRecCode: 1
##########               Number:                 9665
##########   Ligand Source File: /nfs/db/export/3D/DH/ADRO/DHADRO.xke.db2.gz
##########                 Rank:                    1
##########               Setnum:                  754
##########             Matchnum:                    1
##########                Cloud:                    1
##########        Electrostatic:           -41.243156
##########                 Gist:             0.000000
##########        Van der Waals:           -32.112099
##########  Ligand Polar Desolv:            16.729200
########## Ligand Apolar Desolv:            -4.371656
##########      Internal Energy:             0.000000
##########      Receptor Energy:             0.000000
########## Receptor Desolvation:             0.000000
########## Receptor Hydrophobic:             0.000000
##########         Total Energy:           -60.997711
##########        Ligand Charge:             1.000000
##########            Arbitrary:    +999.9990
##########        Ligand Energy:             0.000000

@<TRIPOS>MOLECULE
 ZINC000449156693      none
   46    47     0     0     0



@<TRIPOS>ATOM
      1 C1        -22.3600    17.3774   -18.6560 C.3        1  LIG1  -0.1600
      2 C2        -21.4841    18.2738   -19.5335 C.3        1  LIG1  -0.1300
      3 C3        -20.6233    17.4041   -20.4519 C.3        1  LIG1  -0.1200
      4 C4        -19.7473    18.3004   -21.3294 C.3        1  LIG1  -0.1200
      5 C5        -20.6378    19.2113   -22.1769 C.3        1  LIG1  -0.1600
      6 C6        -19.7328    16.4932   -19.6042 C.3        1  LIG1   0.0900
      7 H1        -20.3569    15.8546   -18.9790 H          1  LIG1   0.1300
      8 O1        -18.9290    15.6808   -20.4620 O.3        1  LIG1  -0.5500
      9 C7        -18.8272    17.3485   -18.7159 C.3        1  LIG1  -0.0500
     10 N1        -17.9722    16.4740   -17.9021 N.4        1  LIG1  -0.5100
     11 H2        -18.5499    15.8829   -17.3233 H          1  LIG1   0.4300
     12 H3        -17.4046    15.9003   -18.5077 H          1  LIG1   0.4300
     13 C8        -17.1027    17.2952   -17.0492 C.3        1  LIG1   0.0900
     14 C9        -16.2256    16.3980   -16.2144 C.2        1  LIG1  -0.3400
     15 C10       -14.9151    16.5583   -16.0045 C.2        1  LIG1   0.1200
     16 N2        -14.3431    15.6562   -15.2401 N.2        1  LIG1  -0.4700
     17 C11       -15.1043    14.7093   -14.7708 C.2        1  LIG1   0.1700
     18 C12       -14.6583    13.6043   -13.8960 C.ar       1  LIG1  -0.1000
     19 C13       -15.2983    12.3659   -13.9498 C.ar       1  LIG1  -0.0600
     20 C14       -14.8770    11.3383   -13.1310 C.ar       1  LIG1  -0.1300
     21 C15       -13.8221    11.5338   -12.2556 C.ar       1  LIG1  -0.0500
     22 C16       -13.1823    12.7573   -12.1965 C.ar       1  LIG1  -0.1600
     23 C17       -13.5896    13.7937   -13.0151 C.ar       1  LIG1   0.1600
     24 F1        -12.9638    14.9896   -12.9562 F          1  LIG1  -0.1100
     25 S1        -16.7524    14.9611   -15.3403 S.3        1  LIG1   0.1400
     26 H4        -22.9734    17.9970   -18.0016 H          1  LIG1   0.0600
     27 H5        -23.0052    16.7680   -19.2890 H          1  LIG1   0.0600
     28 H6        -21.7257    16.7285   -18.0522 H          1  LIG1   0.0600
     29 H7        -22.1184    18.9227   -20.1373 H          1  LIG1   0.0700
     30 H8        -20.8390    18.8831   -18.9005 H          1  LIG1   0.0600
     31 H9        -21.2683    16.7946   -21.0848 H          1  LIG1   0.0900
     32 H10       -19.1022    18.9099   -20.6963 H          1  LIG1   0.0800
     33 H11       -19.1340    17.6809   -21.9835 H          1  LIG1   0.0700
     34 H12       -20.0138    19.8499   -22.8021 H          1  LIG1   0.0500
     35 H13       -21.2829    18.6019   -22.8099 H          1  LIG1   0.0600
     36 H14       -21.2511    19.8309   -21.5228 H          1  LIG1   0.0600
     37 H15       -18.3380    15.0769   -19.9915 H          1  LIG1   0.3900
     38 H16       -18.2031    17.9871   -19.3412 H          1  LIG1   0.1400
     39 H17       -19.4403    17.9681   -18.0617 H          1  LIG1   0.1400
     40 H18       -16.4786    17.9337   -17.6745 H          1  LIG1   0.1500
     41 H19       -17.7159    17.9149   -16.3950 H          1  LIG1   0.1400
     42 H20       -14.3610    17.3782   -16.4370 H          1  LIG1   0.1900
     43 H21       -16.1223    12.2119   -14.6308 H          1  LIG1   0.1300
     44 H22       -15.3723    10.3794   -13.1723 H          1  LIG1   0.1500
     45 H23       -13.4977    10.7245   -11.6184 H          1  LIG1   0.1500
     46 H24       -12.3601    12.9026   -11.5115 H          1  LIG1   0.1500
@<TRIPOS>BOND
     1    1    2 1
     2    1   26 1
     3    1   27 1
     4    1   28 1
     5    2    3 1
     6    2   29 1
     7    2   30 1
     8    3    4 1
     9    3    6 1
    10    3   31 1
    11    4    5 1
    12    4   32 1
    13    4   33 1
    14    5   34 1
    15    5   35 1
    16    5   36 1
    17    6    7 1
    18    6    8 1
    19    6    9 1
    20    8   37 1
    21    9   10 1
    22    9   38 1
    23    9   39 1
    24   10   11 1
    25   10   12 1
    26   10   13 1
    27   13   14 1
    28   13   40 1
    29   13   41 1
    30   14   25 1
    31   14   15 2
    32   15   16 1
    33   15   42 1
    34   16   17 2
    35   17   18 1
    36   17   25 1
    37   18   23 ar
    38   18   19 ar
    39   19   20 ar
    40   19   43 1
    41   20   21 ar
    42   20   44 1
    43   21   22 ar
    44   21   45 1
    45   22   23 ar
    46   22   46 1
    47   23   24 1
##########                 Name:     ZINC000367568545
##########          Protonation:                 none
##########               SMILES:   Cn1nccc1[C@@H]1CCC[C@@H]([NH2+]C[C@H](CO)c2cccnc2)C1
##########            Long Name:   NO_LONG_NAME
##########          FlexRecCode: 1
##########               Number:                12081
##########   Ligand Source File: /nfs/db/export/3D/DE/ADRO/DEADRO.xbuw.db2.gz
##########                 Rank:                    1
##########               Setnum:                  156
##########             Matchnum:                    1
##########                Cloud:                    1
##########        Electrostatic:           -46.839886
##########                 Gist:             0.000000
##########        Van der Waals:           -26.971216
##########  Ligand Polar Desolv:            16.405260
########## Ligand Apolar Desolv:            -3.592052
##########      Internal Energy:             0.000000
##########      Receptor Energy:             0.000000
########## Receptor Desolvation:             0.000000
########## Receptor Hydrophobic:             0.000000
##########         Total Energy:           -60.997894
##########        Ligand Charge:             1.000000
##########            Arbitrary:    +999.9990
##########        Ligand Energy:             0.000000

@<TRIPOS>MOLECULE
 ZINC000367568545      none
   50    52     0     0     0



@<TRIPOS>ATOM
      1 C1        -16.2997    12.1809   -16.0226 C.3        1  LIG1   0.0900
      2 N1        -15.4074    12.7958   -15.0367 N.pl3      1  LIG1  -0.3700
      3 N2        -14.6828    12.1201   -14.0464 N.2        1  LIG1  -0.2800
      4 C2        -14.0029    13.0043   -13.3624 C.2        1  LIG1   0.0500
      5 C3        -14.2724    14.2695   -13.8942 C.2        1  LIG1  -0.2600
      6 C4        -15.1339    14.1126   -14.9259 C.2        1  LIG1   0.0700
      7 C5        -15.6955    15.2125   -15.7896 C.3        1  LIG1  -0.0300
      8 H1        -15.9025    14.8222   -16.7861 H          1  LIG1   0.0800
      9 C6        -14.6793    16.3521   -15.8890 C.3        1  LIG1  -0.1200
     10 C7        -15.2495    17.4687   -16.7659 C.3        1  LIG1  -0.1300
     11 C8        -16.5453    17.9938   -16.1446 C.3        1  LIG1  -0.1500
     12 C9        -17.5615    16.8543   -16.0451 C.3        1  LIG1   0.0300
     13 H2        -18.4846    17.2283   -15.6025 H          1  LIG1   0.1400
     14 N3        -17.8404    16.3282   -17.3881 N.4        1  LIG1  -0.5100
     15 H3        -16.9831    16.2895   -17.9187 H          1  LIG1   0.4300
     16 H4        -18.2309    15.4011   -17.3117 H          1  LIG1   0.4200
     17 C10       -18.7986    17.2087   -18.0695 C.3        1  LIG1  -0.0100
     18 C11       -19.0891    16.6608   -19.4683 C.3        1  LIG1  -0.0600
     19 H5        -19.5110    15.6592   -19.3859 H          1  LIG1   0.1100
     20 C12       -17.7891    16.6020   -20.2730 C.3        1  LIG1   0.0600
     21 O1        -17.0074    17.7669   -20.0009 O.3        1  LIG1  -0.6000
     22 C13       -20.0722    17.5640   -20.1674 C.ar       1  LIG1  -0.1600
     23 C14       -19.7636    18.8965   -20.3930 C.ar       1  LIG1  -0.0500
     24 C15       -20.6985    19.6901   -21.0403 C.ar       1  LIG1  -0.1600
     25 C16       -21.8982    19.1303   -21.4365 C.ar       1  LIG1   0.1200
     26 N4        -22.1580    17.8582   -21.2052 N.ar       1  LIG1  -0.4800
     27 C17       -21.2907    17.0728   -20.5971 C.ar       1  LIG1   0.1100
     28 C18       -16.9913    15.7376   -15.1683 C.3        1  LIG1  -0.1300
     29 H6        -16.3232    11.1021   -15.8684 H          1  LIG1   0.0800
     30 H7        -17.3048    12.5866   -15.9059 H          1  LIG1   0.1000
     31 H8        -15.9352    12.3965   -17.0270 H          1  LIG1   0.0800
     32 H9        -13.3474    12.7936   -12.5303 H          1  LIG1   0.1900
     33 H10       -13.8619    15.2058   -13.5460 H          1  LIG1   0.1500
     34 H11       -14.4724    16.7424   -14.8925 H          1  LIG1   0.0900
     35 H12       -13.7561    15.9780   -16.3316 H          1  LIG1   0.0800
     36 H13       -14.5255    18.2805   -16.8368 H          1  LIG1   0.1000
     37 H14       -15.4563    17.0784   -17.7624 H          1  LIG1   0.0600
     38 H15       -16.3383    18.3840   -15.1481 H          1  LIG1   0.1200
     39 H16       -16.9515    18.7893   -16.7693 H          1  LIG1   0.0900
     40 H17       -19.7248    17.2506   -17.4963 H          1  LIG1   0.1400
     41 H18       -18.3767    18.2102   -18.1520 H          1  LIG1   0.1300
     42 H19       -17.2264    15.7126   -19.9899 H          1  LIG1   0.0800
     43 H20       -18.0221    16.5612   -21.3371 H          1  LIG1   0.0700
     44 H21       -16.7629    17.8681   -19.0708 H          1  LIG1   0.4100
     45 H22       -18.8177    19.3070   -20.0717 H          1  LIG1   0.1400
     46 H23       -20.4917    20.7326   -21.2324 H          1  LIG1   0.1500
     47 H24       -22.6317    19.7417   -21.9409 H          1  LIG1   0.1700
     48 H25       -21.5388    16.0359   -20.4250 H          1  LIG1   0.1500
     49 H26       -17.7153    14.9258   -15.0974 H          1  LIG1   0.1000
     50 H27       -16.7844    16.1278   -14.1717 H          1  LIG1   0.1200
@<TRIPOS>BOND
     1    1    2 1
     2    1   29 1
     3    1   30 1
     4    1   31 1
     5    2    6 1
     6    2    3 1
     7    3    4 2
     8    4    5 1
     9    4   32 1
    10    5    6 2
    11    5   33 1
    12    6    7 1
    13    7    8 1
    14    7   28 1
    15    7    9 1
    16    9   10 1
    17    9   34 1
    18    9   35 1
    19   10   11 1
    20   10   36 1
    21   10   37 1
    22   11   12 1
    23   11   38 1
    24   11   39 1
    25   12   13 1
    26   12   14 1
    27   12   28 1
    28   14   15 1
    29   14   16 1
    30   14   17 1
    31   17   18 1
    32   17   40 1
    33   17   41 1
    34   18   19 1
    35   18   20 1
    36   18   22 1
    37   20   21 1
    38   20   42 1
    39   20   43 1
    40   21   44 1
    41   22   27 ar
    42   22   23 ar
    43   23   24 ar
    44   23   45 1
    45   24   25 ar
    46   24   46 1
    47   25   26 ar
    48   25   47 1
    49   26   27 ar
    50   27   48 1
    51   28   49 1
    52   28   50 1
##########                 Name:     ZINC000663449223
##########          Protonation:                 none
##########               SMILES:   CCC1=CC=C([C@@H](CNC(=O)N[C@@H]2COC(C)(C)C2)[NH+](C)C)C=C1
##########            Long Name:   NO_LONG_NAME
##########          FlexRecCode: 1
##########               Number:                13229
##########   Ligand Source File: /nfs/db/export/3D/EF/ADRO/EFADRO.xbbh.db2.gz
##########                 Rank:                    1
##########               Setnum:                   63
##########             Matchnum:                    1
##########                Cloud:                    1
##########        Electrostatic:           -42.230526
##########                 Gist:             0.000000
##########        Van der Waals:           -29.047548
##########  Ligand Polar Desolv:            14.937146
########## Ligand Apolar Desolv:            -4.648883
##########      Internal Energy:             0.000000
##########      Receptor Energy:             0.000000
########## Receptor Desolvation:             0.000000
########## Receptor Hydrophobic:             0.000000
##########         Total Energy:           -60.989815
##########        Ligand Charge:             1.000000
##########            Arbitrary:    +999.9990
##########        Ligand Energy:             0.000000

@<TRIPOS>MOLECULE
 ZINC000663449223      none
   56    57     0     0     0



@<TRIPOS>ATOM
      1 C1        -12.0623    14.3869   -13.3901 C.3        1  LIG1  -0.1500
      2 C2        -13.4534    14.8287   -12.9312 C.3        1  LIG1  -0.1000
      3 C3        -14.2402    15.3231   -14.1176 C.ar       1  LIG1  -0.0500
      4 C4        -15.0147    14.4421   -14.8491 C.ar       1  LIG1  -0.1000
      5 C5        -15.7365    14.8956   -15.9373 C.ar       1  LIG1  -0.0900
      6 C6        -15.6842    16.2302   -16.2937 C.ar       1  LIG1  -0.1500
      7 C7        -16.4706    16.7245   -17.4804 C.3        1  LIG1   0.0700
      8 H1        -16.3057    17.7947   -17.6053 H          1  LIG1   0.1500
      9 C8        -16.0110    15.9873   -18.7397 C.3        1  LIG1   0.1300
     10 N1        -16.3953    16.7584   -19.9247 N.am       1  LIG1  -0.7400
     11 C9        -15.9296    18.0119   -20.0931 C.2        1  LIG1   0.7100
     12 O1        -15.1907    18.5028   -19.2615 O.2        1  LIG1  -0.5800
     13 N2        -16.2831    18.7213   -21.1831 N.am       1  LIG1  -0.7200
     14 C10       -17.1735    18.1297   -22.1851 C.3        1  LIG1   0.1300
     15 H2        -17.0473    17.0479   -22.2245 H          1  LIG1   0.1100
     16 C11       -16.9377    18.7654   -23.5788 C.3        1  LIG1   0.0400
     17 O2        -17.6894    19.9966   -23.5192 O.3        1  LIG1  -0.3600
     18 C12       -18.9173    19.7056   -22.8306 C.3        1  LIG1   0.0900
     19 C13       -19.3486    20.9171   -22.0016 C.3        1  LIG1  -0.1400
     20 C14       -20.0096    19.3519   -23.8419 C.3        1  LIG1  -0.1700
     21 C15       -18.6489    18.5039   -21.9025 C.3        1  LIG1  -0.1500
     22 N3        -17.9008    16.4721   -17.2597 N.4        1  LIG1  -0.3800
     23 H3        -18.0535    15.4813   -17.1440 H          1  LIG1   0.4300
     24 C16       -18.3421    17.1799   -16.0505 C.3        1  LIG1  -0.0500
     25 C17       -18.6675    16.9538   -18.4164 C.3        1  LIG1  -0.0500
     26 C18       -14.9108    17.1114   -15.5614 C.ar       1  LIG1  -0.1100
     27 C19       -14.1921    16.6586   -14.4710 C.ar       1  LIG1  -0.1000
     28 H4        -11.4932    14.0293   -12.5319 H          1  LIG1   0.0600
     29 H5        -12.1588    13.5850   -14.1219 H          1  LIG1   0.0700
     30 H6        -11.5440    15.2320   -13.8432 H          1  LIG1   0.0600
     31 H7        -13.9718    13.9837   -12.4780 H          1  LIG1   0.0800
     32 H8        -13.3570    15.6307   -12.1993 H          1  LIG1   0.0800
     33 H9        -15.0555    13.3994   -14.5706 H          1  LIG1   0.1400
     34 H10       -16.3409    14.2072   -16.5092 H          1  LIG1   0.1300
     35 H11       -14.9275    15.8710   -18.7177 H          1  LIG1   0.0900
     36 H12       -16.4813    15.0047   -18.7776 H          1  LIG1   0.0900
     37 H13       -16.9846    16.3668   -20.5882 H          1  LIG1   0.4000
     38 H14       -15.9479    19.6234   -21.3044 H          1  LIG1   0.4000
     39 H15       -15.8781    18.9698   -23.7331 H          1  LIG1   0.0900
     40 H16       -17.3233    18.1179   -24.3662 H          1  LIG1   0.0800
     41 H17       -20.2797    20.6893   -21.4827 H          1  LIG1   0.0700
     42 H18       -18.5740    21.1521   -21.2717 H          1  LIG1   0.0700
     43 H19       -19.4993    21.7727   -22.6598 H          1  LIG1   0.0600
     44 H20       -20.9371    19.1326   -23.3130 H          1  LIG1   0.0600
     45 H21       -20.1662    20.1935   -24.5167 H          1  LIG1   0.0700
     46 H22       -19.7034    18.4777   -24.4164 H          1  LIG1   0.0700
     47 H23       -19.3085    17.6731   -22.1536 H          1  LIG1   0.1000
     48 H24       -18.7767    18.7917   -20.8590 H          1  LIG1   0.0900
     49 H25       -19.4034    16.9925   -15.8867 H          1  LIG1   0.1300
     50 H26       -17.7733    16.8223   -15.1921 H          1  LIG1   0.1300
     51 H27       -18.1771    18.2500   -16.1753 H          1  LIG1   0.1200
     52 H28       -19.7287    16.7665   -18.2526 H          1  LIG1   0.1300
     53 H29       -18.5025    18.0241   -18.5413 H          1  LIG1   0.1300
     54 H30       -18.3400    16.4285   -19.3137 H          1  LIG1   0.1300
     55 H31       -14.8703    18.1542   -15.8397 H          1  LIG1   0.1200
     56 H32       -13.5879    17.3472   -13.8987 H          1  LIG1   0.1400
@<TRIPOS>BOND
     1    1    2 1
     2    1   28 1
     3    1   29 1
     4    1   30 1
     5    2    3 1
     6    2   31 1
     7    2   32 1
     8    3   27 ar
     9    3    4 ar
    10    4    5 ar
    11    4   33 1
    12    5    6 ar
    13    5   34 1
    14    6    7 1
    15    6   26 ar
    16    7    8 1
    17    7    9 1
    18    7   22 1
    19    9   10 1
    20    9   35 1
    21    9   36 1
    22   10   11 am
    23   10   37 1
    24   11   12 2
    25   11   13 am
    26   13   14 1
    27   13   38 1
    28   14   15 1
    29   14   21 1
    30   14   16 1
    31   16   17 1
    32   16   39 1
    33   16   40 1
    34   17   18 1
    35   18   19 1
    36   18   20 1
    37   18   21 1
    38   19   41 1
    39   19   42 1
    40   19   43 1
    41   20   44 1
    42   20   45 1
    43   20   46 1
    44   21   47 1
    45   21   48 1
    46   22   23 1
    47   22   24 1
    48   22   25 1
    49   24   49 1
    50   24   50 1
    51   24   51 1
    52   25   52 1
    53   25   53 1
    54   25   54 1
    55   26   27 ar
    56   26   55 1
    57   27   56 1
##########                 Name:     ZINC000630510616
##########          Protonation:                 none
##########               SMILES:   C[C@H]1CCCN(C2=NC=CC(N3CC4=CC=CC=C4C3)=N2)[C@@H]1C[NH3+]
##########            Long Name:   NO_LONG_NAME
##########          FlexRecCode: 1
##########               Number:                  367
##########   Ligand Source File: /nfs/db/export/3D/DF/ADRO/DFADRO.xbfl.db2.gz
##########                 Rank:                    1
##########               Setnum:                    7
##########             Matchnum:                    1
##########                Cloud:                    1
##########        Electrostatic:           -37.472443
##########                 Gist:             0.000000
##########        Van der Waals:           -32.354614
##########  Ligand Polar Desolv:            12.431867
########## Ligand Apolar Desolv:            -3.585670
##########      Internal Energy:             0.000000
##########      Receptor Energy:             0.000000
########## Receptor Desolvation:             0.000000
########## Receptor Hydrophobic:             0.000000
##########         Total Energy:           -60.980862
##########        Ligand Charge:             1.000000
##########            Arbitrary:    +999.9990
##########        Ligand Energy:             0.000000

@<TRIPOS>MOLECULE
 ZINC000630510616      none
   50    53     0     0     0



@<TRIPOS>ATOM
      1 C1        -19.2590    18.6799   -20.6774 C.3        1  LIG1  -0.1600
      2 C2        -17.7967    18.2412   -20.5765 C.3        1  LIG1  -0.0900
      3 H1        -17.7201    17.1767   -20.7975 H          1  LIG1   0.0800
      4 C3        -16.9548    19.0336   -21.5805 C.3        1  LIG1  -0.1200
      5 C4        -15.4848    18.6320   -21.4314 C.3        1  LIG1  -0.1200
      6 C5        -15.0346    18.8881   -19.9914 C.3        1  LIG1   0.0700
      7 N1        -15.8698    18.1073   -19.0699 N.pl3      1  LIG1  -0.4800
      8 C6        -15.4072    18.2138   -17.7700 C.ar       1  LIG1   0.4800
      9 N2        -14.7916    19.3244   -17.3924 N.ar       1  LIG1  -0.5500
     10 C7        -14.3347    19.4634   -16.1563 C.ar       1  LIG1   0.1800
     11 C8        -14.5053    18.4331   -15.2531 C.ar       1  LIG1  -0.2300
     12 C9        -15.1581    17.2742   -15.6797 C.ar       1  LIG1   0.3600
     13 N3        -15.3515    16.2151   -14.8080 N.pl3      1  LIG1  -0.4300
     14 C10       -14.0551    15.5784   -14.4457 C.3        1  LIG1   0.1000
     15 C11       -14.4309    14.1554   -14.0842 C.ar       1  LIG1  -0.1200
     16 C12       -13.8084    13.2024   -13.3052 C.ar       1  LIG1  -0.0900
     17 C13       -14.3883    11.9568   -13.1435 C.ar       1  LIG1  -0.1100
     18 C14       -15.5899    11.6674   -13.7621 C.ar       1  LIG1  -0.1100
     19 C15       -16.2145    12.6233   -14.5430 C.ar       1  LIG1  -0.0900
     20 C16       -15.6366    13.8653   -14.7045 C.ar       1  LIG1  -0.1100
     21 C17       -16.0657    15.0945   -15.4801 C.3        1  LIG1   0.0900
     22 N4        -15.5955    17.2046   -16.9327 N.ar       1  LIG1  -0.5500
     23 C18       -17.2797    18.5078   -19.1610 C.3        1  LIG1   0.0700
     24 H2        -17.3707    19.5705   -18.9363 H          1  LIG1   0.1100
     25 C19       -18.1047    17.7016   -18.1558 C.3        1  LIG1   0.0000
     26 N5        -17.9833    16.2695   -18.4593 N.4        1  LIG1  -0.6400
     27 H3        -18.4084    16.0782   -19.3542 H          1  LIG1   0.4300
     28 H4        -17.0077    16.0135   -18.4888 H          1  LIG1   0.4400
     29 H5        -18.4502    15.7332   -17.7435 H          1  LIG1   0.4300
     30 H6        -19.3350    19.7446   -20.4563 H          1  LIG1   0.0700
     31 H7        -19.6261    18.4913   -21.6862 H          1  LIG1   0.0800
     32 H8        -19.8575    18.1166   -19.9616 H          1  LIG1   0.0500
     33 H9        -17.2920    18.8125   -22.5933 H          1  LIG1   0.0800
     34 H10       -17.0626    20.1005   -21.3846 H          1  LIG1   0.0700
     35 H11       -15.3713    17.5734   -21.6654 H          1  LIG1   0.0800
     36 H12       -14.8748    19.2236   -22.1142 H          1  LIG1   0.0900
     37 H13       -13.9923    18.5897   -19.8782 H          1  LIG1   0.0900
     38 H14       -15.1354    19.9490   -19.7626 H          1  LIG1   0.0700
     39 H15       -13.8340    20.3729   -15.8587 H          1  LIG1   0.1800
     40 H16       -14.1419    18.5210   -14.2397 H          1  LIG1   0.1600
     41 H17       -13.3737    15.5889   -15.2964 H          1  LIG1   0.0700
     42 H18       -13.6073    16.0840   -13.5902 H          1  LIG1   0.1100
     43 H19       -12.8691    13.4281   -12.8224 H          1  LIG1   0.1300
     44 H20       -13.9015    11.2100   -12.5338 H          1  LIG1   0.1300
     45 H21       -16.0415    10.6946   -13.6356 H          1  LIG1   0.1300
     46 H22       -17.1535    12.3970   -15.0263 H          1  LIG1   0.1300
     47 H23       -17.1447    15.2327   -15.4102 H          1  LIG1   0.1100
     48 H24       -15.7567    15.0154   -16.5223 H          1  LIG1   0.0700
     49 H25       -17.7361    17.8919   -17.1477 H          1  LIG1   0.1200
     50 H26       -19.1511    17.9998   -18.2223 H          1  LIG1   0.1500
@<TRIPOS>BOND
     1    1    2 1
     2    1   30 1
     3    1   31 1
     4    1   32 1
     5    2    3 1
     6    2   23 1
     7    2    4 1
     8    4    5 1
     9    4   33 1
    10    4   34 1
    11    5    6 1
    12    5   35 1
    13    5   36 1
    14    6    7 1
    15    6   37 1
    16    6   38 1
    17    7    8 1
    18    7   23 1
    19    8   22 ar
    20    8    9 ar
    21    9   10 ar
    22   10   11 ar
    23   10   39 1
    24   11   12 ar
    25   11   40 1
    26   12   13 1
    27   12   22 ar
    28   13   21 1
    29   13   14 1
    30   14   15 1
    31   14   41 1
    32   14   42 1
    33   15   20 ar
    34   15   16 ar
    35   16   17 ar
    36   16   43 1
    37   17   18 ar
    38   17   44 1
    39   18   19 ar
    40   18   45 1
    41   19   20 ar
    42   19   46 1
    43   20   21 1
    44   21   47 1
    45   21   48 1
    46   23   24 1
    47   23   25 1
    48   25   26 1
    49   25   49 1
    50   25   50 1
    51   26   27 1
    52   26   28 1
    53   26   29 1
##########                 Name:     ZINC000484629121
##########          Protonation:                 none
##########               SMILES:   CS[C@H]1CN(CC#CC2=CC=CC=C2Cl)C[C@@H]1[NH+]1CCCC1
##########            Long Name:   NO_LONG_NAME
##########          FlexRecCode: 1
##########               Number:                12796
##########   Ligand Source File: /nfs/db/export/3D/EG/EDRO/EGEDRO.xcd.db2.gz
##########                 Rank:                    1
##########               Setnum:                    6
##########             Matchnum:                    1
##########                Cloud:                    1
##########        Electrostatic:           -37.638641
##########                 Gist:             0.000000
##########        Van der Waals:           -30.012798
##########  Ligand Polar Desolv:            12.821395
########## Ligand Apolar Desolv:            -6.174552
##########      Internal Energy:             0.000000
##########      Receptor Energy:             0.000000
########## Receptor Desolvation:             0.000000
########## Receptor Hydrophobic:             0.000000
##########         Total Energy:           -61.004601
##########        Ligand Charge:             1.000000
##########            Arbitrary:    +999.9990
##########        Ligand Energy:             0.000000

@<TRIPOS>MOLECULE
 ZINC000484629121      none
   46    48     0     0     0



@<TRIPOS>ATOM
      1 C1        -15.9841    17.9274   -21.8311 C.3        1  LIG1  -0.1300
      2 S1        -16.9158    18.8035   -20.5445 S.3        1  LIG1  -0.1900
      3 C2        -16.9965    17.5883   -19.2001 C.3        1  LIG1  -0.1000
      4 H1        -17.1703    16.5904   -19.6026 H          1  LIG1   0.1100
      5 C3        -15.6916    17.6138   -18.3753 C.3        1  LIG1   0.0300
      6 N1        -15.9862    18.5218   -17.2369 N.3        1  LIG1  -0.4700
      7 C4        -15.0651    18.2796   -16.1184 C.3        1  LIG1   0.1500
      8 C5        -15.2048    16.8877   -15.6603 C.1        1  LIG1  -0.1900
      9 C6        -15.3162    15.7776   -15.2950 C.1        1  LIG1  -0.1100
     10 C7        -15.4520    14.4235   -14.8494 C.ar       1  LIG1   0.0100
     11 C8        -16.3572    13.5670   -15.4765 C.ar       1  LIG1  -0.0900
     12 C9        -16.4835    12.2632   -15.0423 C.ar       1  LIG1  -0.1100
     13 C10       -15.7155    11.8044   -13.9872 C.ar       1  LIG1  -0.0900
     14 C11       -14.8161    12.6478   -13.3599 C.ar       1  LIG1  -0.1100
     15 C12       -14.6749    13.9528   -13.7886 C.ar       1  LIG1  -0.0200
     16 Cl1       -13.5460    15.0103   -13.0006 Cl         1  LIG1  -0.0500
     17 C13       -17.3835    18.1898   -16.8572 C.3        1  LIG1   0.0100
     18 C14       -18.1112    17.9657   -18.2029 C.3        1  LIG1   0.0500
     19 H2        -18.6093    18.8815   -18.5210 H          1  LIG1   0.1600
     20 N2        -19.0847    16.8724   -18.0807 N.4        1  LIG1  -0.3900
     21 H3        -18.6286    16.0351   -17.7508 H          1  LIG1   0.4200
     22 C15       -20.1768    17.2606   -17.1518 C.3        1  LIG1  -0.0100
     23 C16       -21.3380    16.3179   -17.5562 C.3        1  LIG1  -0.1400
     24 C17       -21.1976    16.2363   -19.0935 C.3        1  LIG1  -0.1400
     25 C18       -19.7339    16.6194   -19.3853 C.3        1  LIG1  -0.0100
     26 H4        -15.8726    18.5730   -22.7021 H          1  LIG1   0.0800
     27 H5        -14.9992    17.6602   -21.4482 H          1  LIG1   0.1200
     28 H6        -16.5210    17.0226   -22.1160 H          1  LIG1   0.0900
     29 H7        -15.4518    16.6145   -18.0123 H          1  LIG1   0.0700
     30 H8        -14.8710    18.0088   -18.9741 H          1  LIG1   0.1100
     31 H9        -14.0405    18.4527   -16.4476 H          1  LIG1   0.1200
     32 H10       -15.3029    18.9575   -15.2987 H          1  LIG1   0.1200
     33 H11       -16.9581    13.9237   -16.2999 H          1  LIG1   0.1300
     34 H12       -17.1839    11.5995   -15.5272 H          1  LIG1   0.1400
     35 H13       -15.8188    10.7832   -13.6514 H          1  LIG1   0.1400
     36 H14       -14.2200    12.2836   -12.5363 H          1  LIG1   0.1400
     37 H15       -17.4084    17.2806   -16.2567 H          1  LIG1   0.0700
     38 H16       -17.8367    19.0184   -16.3132 H          1  LIG1   0.1200
     39 H17       -19.8821    17.0860   -16.1171 H          1  LIG1   0.1400
     40 H18       -20.4575    18.3031   -17.3022 H          1  LIG1   0.1400
     41 H19       -21.2112    15.3340   -17.1045 H          1  LIG1   0.1000
     42 H20       -22.2998    16.7496   -17.2791 H          1  LIG1   0.1200
     43 H21       -21.3982    15.2219   -19.4386 H          1  LIG1   0.1100
     44 H22       -21.8767    16.9411   -19.5734 H          1  LIG1   0.1100
     45 H23       -19.7009    17.5211   -19.9967 H          1  LIG1   0.1400
     46 H24       -19.2311    15.8002   -19.8995 H          1  LIG1   0.1300
@<TRIPOS>BOND
     1    1    2 1
     2    1   26 1
     3    1   27 1
     4    1   28 1
     5    2    3 1
     6    3    4 1
     7    3   18 1
     8    3    5 1
     9    5    6 1
    10    5   29 1
    11    5   30 1
    12    6    7 1
    13    6   17 1
    14    7    8 1
    15    7   31 1
    16    7   32 1
    17    8    9 3
    18    9   10 1
    19   10   15 ar
    20   10   11 ar
    21   11   12 ar
    22   11   33 1
    23   12   13 ar
    24   12   34 1
    25   13   14 ar
    26   13   35 1
    27   14   15 ar
    28   14   36 1
    29   15   16 1
    30   17   18 1
    31   17   37 1
    32   17   38 1
    33   18   19 1
    34   18   20 1
    35   20   21 1
    36   20   25 1
    37   20   22 1
    38   22   23 1
    39   22   39 1
    40   22   40 1
    41   23   24 1
    42   23   41 1
    43   23   42 1
    44   24   25 1
    45   24   43 1
    46   24   44 1
    47   25   45 1
    48   25   46 1
##########                 Name:     ZINC000373209847
##########          Protonation:                 none
##########               SMILES:   FC1=CC=CC(Cl)=C1CCC[NH2+]CC1=CC=CN=C1N1C=NC=N1
##########            Long Name:   NO_LONG_NAME
##########          FlexRecCode: 1
##########               Number:                 4221
##########   Ligand Source File: /nfs/db/export/3D/EG/ADRO/EGADRO.xbqs.db2.gz
##########                 Rank:                    1
##########               Setnum:                   32
##########             Matchnum:                    1
##########                Cloud:                    1
##########        Electrostatic:           -35.448872
##########                 Gist:             0.000000
##########        Van der Waals:           -32.382057
##########  Ligand Polar Desolv:            13.803762
########## Ligand Apolar Desolv:            -6.976931
##########      Internal Energy:             0.000000
##########      Receptor Energy:             0.000000
########## Receptor Desolvation:             0.000000
########## Receptor Hydrophobic:             0.000000
##########         Total Energy:           -61.004101
##########        Ligand Charge:             1.000000
##########            Arbitrary:    +999.9990
##########        Ligand Energy:             0.000000

@<TRIPOS>MOLECULE
 ZINC000373209847      none
   42    44     0     0     0



@<TRIPOS>ATOM
      1 F1        -14.5356    19.6355   -19.5081 F          1  LIG1  -0.1300
      2 C1        -14.3534    19.4867   -18.1777 C.ar       1  LIG1   0.1200
      3 C2        -13.7843    20.5094   -17.4379 C.ar       1  LIG1  -0.1400
      4 C3        -13.5980    20.3568   -16.0768 C.ar       1  LIG1  -0.0700
      5 C4        -13.9798    19.1838   -15.4534 C.ar       1  LIG1  -0.1100
      6 C5        -14.5489    18.1608   -16.1913 C.ar       1  LIG1  -0.0100
      7 Cl1       -15.0285    16.6880   -15.4073 Cl         1  LIG1  -0.0500
      8 C6        -14.7412    18.3139   -17.5523 C.ar       1  LIG1  -0.1200
      9 C7        -15.3609    17.2001   -18.3561 C.3        1  LIG1  -0.0800
     10 C8        -16.8797    17.3815   -18.3928 C.3        1  LIG1  -0.1400
     11 C9        -17.5088    16.2505   -19.2090 C.3        1  LIG1   0.0000
     12 N1        -18.9670    16.4247   -19.2442 N.4        1  LIG1  -0.5000
     13 H1        -19.3819    15.6789   -19.7825 H          1  LIG1   0.4200
     14 H2        -19.3311    16.4032   -18.3033 H          1  LIG1   0.4300
     15 C10       -19.2912    17.7159   -19.8652 C.3        1  LIG1   0.0600
     16 C11       -20.7871    17.8944   -19.9013 C.ar       1  LIG1  -0.2000
     17 C12       -21.6228    16.9175   -19.3881 C.ar       1  LIG1  -0.0200
     18 C13       -22.9941    17.1241   -19.4424 C.ar       1  LIG1  -0.1700
     19 C14       -23.4803    18.2893   -20.0027 C.ar       1  LIG1   0.1700
     20 N2        -22.6590    19.2022   -20.4838 N.ar       1  LIG1  -0.4900
     21 C15       -21.3460    19.0444   -20.4451 C.ar       1  LIG1   0.3900
     22 N3        -20.5131    20.0390   -20.9673 N.pl3      1  LIG1  -0.3500
     23 C16       -20.8971    21.2069   -21.5203 C.2        1  LIG1   0.3300
     24 N4        -19.8209    21.8555   -21.8844 N.2        1  LIG1  -0.5200
     25 C17       -18.7376    21.1398   -21.5831 C.2        1  LIG1   0.2700
     26 N5        -19.1094    20.0230   -21.0147 N.2        1  LIG1  -0.3900
     27 H3        -13.4854    21.4260   -17.9245 H          1  LIG1   0.1500
     28 H4        -13.1537    21.1544   -15.5001 H          1  LIG1   0.1500
     29 H5        -13.8335    19.0655   -14.3900 H          1  LIG1   0.1500
     30 H6        -14.9676    17.2232   -19.3725 H          1  LIG1   0.0900
     31 H7        -15.1204    16.2420   -17.8953 H          1  LIG1   0.1000
     32 H8        -17.2730    17.3583   -17.3764 H          1  LIG1   0.0900
     33 H9        -17.1201    18.3395   -18.8537 H          1  LIG1   0.0900
     34 H10       -17.1156    16.2738   -20.2254 H          1  LIG1   0.1300
     35 H11       -17.2683    15.2926   -18.7481 H          1  LIG1   0.1300
     36 H12       -18.8430    18.5215   -19.2836 H          1  LIG1   0.1400
     37 H13       -18.8979    17.7391   -20.8815 H          1  LIG1   0.1400
     38 H14       -21.2169    16.0150   -18.9555 H          1  LIG1   0.1600
     39 H15       -23.6739    16.3817   -19.0511 H          1  LIG1   0.1600
     40 H16       -24.5466    18.4547   -20.0477 H          1  LIG1   0.1900
     41 H17       -21.9148    21.5474   -21.6414 H          1  LIG1   0.2400
     42 H18       -17.7169    21.4371   -21.7736 H          1  LIG1   0.2400
@<TRIPOS>BOND
     1    1    2 1
     2    2    8 ar
     3    2    3 ar
     4    3    4 ar
     5    3   27 1
     6    4    5 ar
     7    4   28 1
     8    5    6 ar
     9    5   29 1
    10    6    7 1
    11    6    8 ar
    12    8    9 1
    13    9   10 1
    14    9   30 1
    15    9   31 1
    16   10   11 1
    17   10   32 1
    18   10   33 1
    19   11   12 1
    20   11   34 1
    21   11   35 1
    22   12   13 1
    23   12   14 1
    24   12   15 1
    25   15   16 1
    26   15   36 1
    27   15   37 1
    28   16   21 ar
    29   16   17 ar
    30   17   18 ar
    31   17   38 1
    32   18   19 ar
    33   18   39 1
    34   19   20 ar
    35   19   40 1
    36   20   21 ar
    37   21   22 1
    38   22   26 1
    39   22   23 1
    40   23   24 2
    41   23   41 1
    42   24   25 1
    43   25   26 2
    44   25   42 1
##########                 Name:     ZINC000418270293
##########          Protonation:                 none
##########               SMILES:   CC(C)C[C@@H](C[NH3+])NC(=O)NC[C@H]1CSC2=CC=CC=C21
##########            Long Name:   NO_LONG_NAME
##########          FlexRecCode: 1
##########               Number:                11394
##########   Ligand Source File: /nfs/db/export/3D/DF/ADRO/DFADRO.xbfw.db2.gz
##########                 Rank:                    1
##########               Setnum:                   83
##########             Matchnum:                    1
##########                Cloud:                    1
##########        Electrostatic:           -42.832596
##########                 Gist:             0.000000
##########        Van der Waals:           -27.453239
##########  Ligand Polar Desolv:            12.488140
########## Ligand Apolar Desolv:            -3.191609
##########      Internal Energy:             0.000000
##########      Receptor Energy:             0.000000
########## Receptor Desolvation:             0.000000
########## Receptor Hydrophobic:             0.000000
##########         Total Energy:           -60.989304
##########        Ligand Charge:             1.000000
##########            Arbitrary:    +999.9990
##########        Ligand Energy:             0.000000

@<TRIPOS>MOLECULE
 ZINC000418270293      none
   47    48     0     0     0



@<TRIPOS>ATOM
      1 C1        -14.4373    19.4283   -19.8301 C.3        1  LIG1  -0.1500
      2 C2        -15.8173    19.7064   -20.4292 C.3        1  LIG1  -0.0900
      3 C3        -15.7047    19.7887   -21.9528 C.3        1  LIG1  -0.1600
      4 C4        -16.7757    18.5759   -20.0491 C.3        1  LIG1  -0.1200
      5 C5        -16.8885    18.4935   -18.5255 C.3        1  LIG1   0.1300
      6 H1        -16.9189    19.5002   -18.1085 H          1  LIG1   0.1200
      7 C6        -18.1692    17.7463   -18.1486 C.3        1  LIG1  -0.0200
      8 N1        -17.9472    16.2996   -18.2741 N.4        1  LIG1  -0.6300
      9 H2        -17.6971    16.0792   -19.2264 H          1  LIG1   0.4300
     10 H3        -17.2002    16.0192   -17.6567 H          1  LIG1   0.4400
     11 H4        -18.7918    15.8068   -18.0256 H          1  LIG1   0.4300
     12 N2        -15.7291    17.7773   -17.9880 N.am       1  LIG1  -0.7500
     13 C7        -15.6136    17.5830   -16.6592 C.2        1  LIG1   0.6900
     14 O1        -16.4717    18.0021   -15.9067 O.2        1  LIG1  -0.6000
     15 N3        -14.5468    16.9240   -16.1647 N.am       1  LIG1  -0.7300
     16 C8        -14.4214    16.7129   -14.7204 C.3        1  LIG1   0.1400
     17 C9        -13.6553    15.4145   -14.4596 C.3        1  LIG1  -0.0600
     18 H5        -12.8376    15.3294   -15.1753 H          1  LIG1   0.1100
     19 C10       -13.0795    15.4417   -13.0300 C.3        1  LIG1  -0.0900
     20 S1        -13.1186    13.6602   -12.6004 S.3        1  LIG1  -0.1300
     21 C11       -14.4219    13.2094   -13.7169 C.ar       1  LIG1  -0.0700
     22 C12       -15.2073    12.0666   -13.7732 C.ar       1  LIG1  -0.0800
     23 C13       -16.1791    11.9400   -14.7457 C.ar       1  LIG1  -0.0900
     24 C14       -16.3596    12.9625   -15.6590 C.ar       1  LIG1  -0.1200
     25 C15       -15.5783    14.0957   -15.6046 C.ar       1  LIG1  -0.0900
     26 C16       -14.5896    14.2421   -14.6291 C.ar       1  LIG1  -0.1100
     27 H6        -14.5175    19.3697   -18.7445 H          1  LIG1   0.0600
     28 H7        -14.0565    18.4835   -20.2177 H          1  LIG1   0.0600
     29 H8        -13.7546    20.2339   -20.1008 H          1  LIG1   0.0600
     30 H9        -16.1981    20.6512   -20.0415 H          1  LIG1   0.0700
     31 H10       -16.6880    19.9868   -22.3796 H          1  LIG1   0.0600
     32 H11       -15.0221    20.5940   -22.2239 H          1  LIG1   0.0500
     33 H12       -15.3240    18.8437   -22.3406 H          1  LIG1   0.0600
     34 H13       -17.7587    18.7740   -20.4760 H          1  LIG1   0.1000
     35 H14       -16.3948    17.6311   -20.4367 H          1  LIG1   0.0800
     36 H15       -18.4395    17.9845   -17.1199 H          1  LIG1   0.1500
     37 H16       -18.9763    18.0492   -18.8157 H          1  LIG1   0.1400
     38 H17       -15.0445    17.4429   -18.5882 H          1  LIG1   0.4100
     39 H18       -13.8624    16.5896   -16.7651 H          1  LIG1   0.4100
     40 H19       -13.8811    17.5490   -14.2766 H          1  LIG1   0.0800
     41 H20       -15.4141    16.6446   -14.2756 H          1  LIG1   0.0800
     42 H21       -12.0588    15.8242   -13.0253 H          1  LIG1   0.1200
     43 H22       -13.7166    16.0206   -12.3614 H          1  LIG1   0.1000
     44 H23       -15.0577    11.2742   -13.0548 H          1  LIG1   0.1300
     45 H24       -16.7921    11.0520   -14.7925 H          1  LIG1   0.1400
     46 H25       -17.1191    12.8718   -16.4215 H          1  LIG1   0.1300
     47 H26       -15.7336    14.8835   -16.3268 H          1  LIG1   0.1200
@<TRIPOS>BOND
     1    1    2 1
     2    1   27 1
     3    1   28 1
     4    1   29 1
     5    2    3 1
     6    2    4 1
     7    2   30 1
     8    3   31 1
     9    3   32 1
    10    3   33 1
    11    4    5 1
    12    4   34 1
    13    4   35 1
    14    5    6 1
    15    5    7 1
    16    5   12 1
    17    7    8 1
    18    7   36 1
    19    7   37 1
    20    8    9 1
    21    8   10 1
    22    8   11 1
    23   12   13 am
    24   12   38 1
    25   13   14 2
    26   13   15 am
    27   15   16 1
    28   15   39 1
    29   16   17 1
    30   16   40 1
    31   16   41 1
    32   17   18 1
    33   17   26 1
    34   17   19 1
    35   19   20 1
    36   19   42 1
    37   19   43 1
    38   20   21 1
    39   21   26 ar
    40   21   22 ar
    41   22   23 ar
    42   22   44 1
    43   23   24 ar
    44   23   45 1
    45   24   25 ar
    46   24   46 1
    47   25   26 ar
    48   25   47 1
##########                 Name:     ZINC000370525145
##########          Protonation:                 none
##########               SMILES:   CC[C@H](C(N)=O)[N@@H+]1C[C@H](C(=O)OC)C2(CCC2)C1
##########            Long Name:   NO_LONG_NAME
##########          FlexRecCode: 1
##########               Number:                 5464
##########   Ligand Source File: /nfs/db/export/3D/CC/ADRO/CCADRO.xayu.db2.gz
##########                 Rank:                    1
##########               Setnum:                    5
##########             Matchnum:                    1
##########                Cloud:                    1
##########        Electrostatic:           -48.143887
##########                 Gist:             0.000000
##########        Van der Waals:           -21.778940
##########  Ligand Polar Desolv:            13.752867
########## Ligand Apolar Desolv:            -1.825220
##########      Internal Energy:             0.000000
##########      Receptor Energy:             0.000000
########## Receptor Desolvation:             0.000000
########## Receptor Hydrophobic:             0.000000
##########         Total Energy:           -57.995182
##########        Ligand Charge:             1.000000
##########            Arbitrary:    +999.9990
##########        Ligand Energy:             0.000000

@<TRIPOS>MOLECULE
 ZINC000370525145      none
   41    42     0     0     0



@<TRIPOS>ATOM
      1 C1        -15.1205    16.6208   -15.9601 C.3        1  LIG1  -0.1800
      2 C2        -16.1416    16.1857   -17.0131 C.3        1  LIG1  -0.1500
      3 C3        -17.3604    17.1087   -16.9536 C.3        1  LIG1   0.0100
      4 H1        -17.0494    18.1345   -17.1511 H          1  LIG1   0.1700
      5 C4        -17.9853    17.0280   -15.5847 C.2        1  LIG1   0.5200
      6 N1        -18.4469    15.8489   -15.1231 N.am       1  LIG1  -0.8200
      7 O1        -18.0728    18.0240   -14.8984 O.2        1  LIG1  -0.5300
      8 N2        -18.3407    16.6910   -17.9649 N.4        1  LIG1  -0.3800
      9 H2        -18.6390    15.7420   -17.7956 H          1  LIG1   0.4300
     10 C5        -17.7655    16.8187   -19.3295 C.3        1  LIG1   0.0100
     11 C6        -18.9935    16.9221   -20.2633 C.3        1  LIG1  -0.0900
     12 H3        -19.2502    15.9411   -20.6634 H          1  LIG1   0.1400
     13 C7        -18.7203    17.8905   -21.3851 C.2        1  LIG1   0.4800
     14 O2        -17.6391    18.4224   -21.4741 O.2        1  LIG1  -0.4900
     15 O3        -19.6781    18.1623   -22.2854 O.3        1  LIG1  -0.3500
     16 C8        -19.3447    19.1046   -23.3385 C.3        1  LIG1   0.0300
     17 C9        -20.1213    17.4449   -19.3653 C.3        1  LIG1  -0.1000
     18 C10       -20.8857    18.6550   -19.9001 C.3        1  LIG1  -0.1300
     19 C11       -21.8786    17.6489   -20.5102 C.3        1  LIG1  -0.1400
     20 C12       -21.4297    16.6576   -19.4211 C.3        1  LIG1  -0.1200
     21 C13       -19.5101    17.6109   -17.9661 C.3        1  LIG1   0.0100
     22 H4        -14.2522    15.9633   -16.0024 H          1  LIG1   0.0500
     23 H5        -14.8094    17.6466   -16.1577 H          1  LIG1   0.0900
     24 H6        -15.5725    16.5625   -14.9700 H          1  LIG1   0.0700
     25 H7        -15.6896    16.2442   -18.0034 H          1  LIG1   0.1200
     26 H8        -16.4526    15.1599   -16.8157 H          1  LIG1   0.1000
     27 H9        -18.3768    15.0523   -15.6719 H          1  LIG1   0.4100
     28 H10       -18.8491    15.7969   -14.2419 H          1  LIG1   0.4200
     29 H11       -17.1559    17.7195   -19.4021 H          1  LIG1   0.1500
     30 H12       -17.1735    15.9374   -19.5764 H          1  LIG1   0.1500
     31 H13       -20.2044    19.2341   -23.9959 H          1  LIG1   0.1100
     32 H14       -19.0776    20.0644   -22.8962 H          1  LIG1   0.0700
     33 H15       -18.5014    18.7227   -23.9141 H          1  LIG1   0.0700
     34 H16       -21.3196    19.2787   -19.1186 H          1  LIG1   0.1000
     35 H17       -20.3320    19.2286   -20.6434 H          1  LIG1   0.0800
     36 H18       -22.9208    17.9547   -20.4188 H          1  LIG1   0.0900
     37 H19       -21.6162    17.3350   -21.5205 H          1  LIG1   0.0900
     38 H20       -21.3105    15.6359   -19.7818 H          1  LIG1   0.0900
     39 H21       -22.0167    16.7190   -18.5048 H          1  LIG1   0.1000
     40 H22       -20.2285    17.3199   -17.1996 H          1  LIG1   0.1500
     41 H23       -19.1833    18.6393   -17.8125 H          1  LIG1   0.1300
@<TRIPOS>BOND
     1    1    2 1
     2    1   22 1
     3    1   23 1
     4    1   24 1
     5    2    3 1
     6    2   25 1
     7    2   26 1
     8    3    4 1
     9    3    5 1
    10    3    8 1
    11    5    6 am
    12    5    7 2
    13    6   27 1
    14    6   28 1
    15    8    9 1
    16    8   21 1
    17    8   10 1
    18   10   11 1
    19   10   29 1
    20   10   30 1
    21   11   12 1
    22   11   13 1
    23   11   17 1
    24   13   14 2
    25   13   15 1
    26   15   16 1
    27   16   31 1
    28   16   32 1
    29   16   33 1
    30   17   20 1
    31   17   18 1
    32   17   21 1
    33   18   19 1
    34   18   34 1
    35   18   35 1
    36   19   20 1
    37   19   36 1
    38   19   37 1
    39   20   38 1
    40   20   39 1
    41   21   40 1
    42   21   41 1
##########                 Name:     ZINC000128472643
##########          Protonation:                 none
##########               SMILES:   C[N@@H+](C[C@H](O)C(F)(F)F)CC1(O)CCOCC1
##########            Long Name:   NO_LONG_NAME
##########          FlexRecCode: 1
##########               Number:                 1477
##########   Ligand Source File: /nfs/db/export/3D/CC/ADMO/CCADMO.xahw.db2.gz
##########                 Rank:                    1
##########               Setnum:                   37
##########             Matchnum:                    1
##########                Cloud:                    1
##########        Electrostatic:           -51.117638
##########                 Gist:             0.000000
##########        Van der Waals:           -19.527304
##########  Ligand Polar Desolv:            12.761949
########## Ligand Apolar Desolv:            -0.111645
##########      Internal Energy:             0.000000
##########      Receptor Energy:             0.000000
########## Receptor Desolvation:             0.000000
########## Receptor Hydrophobic:             0.000000
##########         Total Energy:           -57.994640
##########        Ligand Charge:             1.000000
##########            Arbitrary:    +999.9990
##########        Ligand Energy:             0.000000

@<TRIPOS>MOLECULE
 ZINC000128472643      none
   36    36     0     0     0



@<TRIPOS>ATOM
      1 C1        -17.2219    15.4231   -19.5646 C.3        1  LIG1  -0.0600
      2 N1        -18.3685    16.2107   -19.0924 N.4        1  LIG1  -0.3800
      3 H1        -18.8792    15.6808   -18.4022 H          1  LIG1   0.4300
      4 C2        -17.8888    17.4627   -18.4921 C.3        1  LIG1  -0.0500
      5 C3        -17.4033    17.1915   -17.0668 C.3        1  LIG1   0.0500
      6 H2        -16.5906    16.4657   -17.0915 H          1  LIG1   0.1700
      7 O1        -18.4822    16.6719   -16.2868 O.3        1  LIG1  -0.5200
      8 C4        -16.9037    18.4954   -16.4413 C.3        1  LIG1   0.4300
      9 F1        -17.9470    19.4270   -16.4093 F          1  LIG1  -0.1700
     10 F2        -16.4598    18.2474   -15.1380 F          1  LIG1  -0.1500
     11 F3        -15.8476    19.0041   -17.2048 F          1  LIG1  -0.1700
     12 C5        -19.2514    16.5180   -20.2257 C.3        1  LIG1   0.0100
     13 C6        -20.6437    16.8791   -19.7042 C.3        1  LIG1   0.1100
     14 O2        -20.5204    17.6852   -18.5307 O.3        1  LIG1  -0.5600
     15 C7        -21.4096    17.6530   -20.7815 C.3        1  LIG1  -0.2000
     16 C8        -22.8275    17.9412   -20.2811 C.3        1  LIG1   0.0600
     17 O3        -23.4760    16.7099   -19.9565 O.3        1  LIG1  -0.3700
     18 C9        -22.8306    15.9655   -18.9215 C.3        1  LIG1   0.0500
     19 C10       -21.4129    15.5979   -19.3673 C.3        1  LIG1  -0.1800
     20 H3        -16.6702    15.9956   -20.3102 H          1  LIG1   0.1200
     21 H4        -16.5669    15.1951   -18.7238 H          1  LIG1   0.1500
     22 H5        -17.5779    14.4943   -20.0102 H          1  LIG1   0.1300
     23 H6        -17.0659    17.8590   -19.0869 H          1  LIG1   0.1600
     24 H7        -18.7016    18.1885   -18.4671 H          1  LIG1   0.1500
     25 H8        -18.8494    15.8439   -16.6256 H          1  LIG1   0.4000
     26 H9        -18.8438    17.3594   -20.7860 H          1  LIG1   0.1500
     27 H10       -19.3222    15.6473   -20.8775 H          1  LIG1   0.1500
     28 H11       -20.0477    17.2543   -17.8054 H          1  LIG1   0.4000
     29 H12       -20.8981    18.5932   -20.9878 H          1  LIG1   0.0800
     30 H13       -21.4591    17.0567   -21.6926 H          1  LIG1   0.1000
     31 H14       -22.7785    18.5713   -19.3930 H          1  LIG1   0.0600
     32 H15       -23.3908    18.4543   -21.0605 H          1  LIG1   0.1100
     33 H16       -22.7816    16.5697   -18.0157 H          1  LIG1   0.0600
     34 H17       -23.3961    15.0554   -18.7215 H          1  LIG1   0.1100
     35 H18       -21.4624    14.9601   -20.2498 H          1  LIG1   0.1000
     36 H19       -20.9036    15.0684   -18.5622 H          1  LIG1   0.1000
@<TRIPOS>BOND
     1    1    2 1
     2    1   20 1
     3    1   21 1
     4    1   22 1
     5    2    3 1
     6    2    4 1
     7    2   12 1
     8    4    5 1
     9    4   23 1
    10    4   24 1
    11    5    6 1
    12    5    7 1
    13    5    8 1
    14    7   25 1
    15    8    9 1
    16    8   10 1
    17    8   11 1
    18   12   13 1
    19   12   26 1
    20   12   27 1
    21   13   19 1
    22   13   14 1
    23   13   15 1
    24   14   28 1
    25   15   16 1
    26   15   29 1
    27   15   30 1
    28   16   17 1
    29   16   31 1
    30   16   32 1
    31   17   18 1
    32   18   19 1
    33   18   33 1
    34   18   34 1
    35   19   35 1
    36   19   36 1
##########                 Name:     ZINC000570378223
##########          Protonation:                 none
##########               SMILES:   C[C@@H]([NH2+]CCC1=NC2=CC=CC=C2C(=O)N1)C1=NC=C(Br)C=N1
##########            Long Name:   NO_LONG_NAME
##########          FlexRecCode: 1
##########               Number:                 4085
##########   Ligand Source File: /nfs/db/export/3D/FF/ADMO/FFADMO.xbag.db2.gz
##########                 Rank:                    1
##########               Setnum:                  183
##########             Matchnum:                    1
##########                Cloud:                    1
##########        Electrostatic:           -42.289558
##########                 Gist:             0.000000
##########        Van der Waals:           -33.679157
##########  Ligand Polar Desolv:            21.341679
########## Ligand Apolar Desolv:            -3.370687
##########      Internal Energy:             0.000000
##########      Receptor Energy:             0.000000
########## Receptor Desolvation:             0.000000
########## Receptor Hydrophobic:             0.000000
##########         Total Energy:           -57.997726
##########        Ligand Charge:             1.000000
##########            Arbitrary:    +999.9990
##########        Ligand Energy:             0.000000

@<TRIPOS>MOLECULE
 ZINC000570378223      none
   40    42     0     0     0



@<TRIPOS>ATOM
      1 C1        -15.2354    16.7625   -15.6072 C.3        1  LIG1  -0.1800
      2 C2        -16.4241    15.8008   -15.6641 C.3        1  LIG1   0.1200
      3 H1        -17.2882    16.2627   -15.1864 H          1  LIG1   0.1700
      4 N1        -16.7428    15.4987   -17.0659 N.4        1  LIG1  -0.5100
      5 H2        -15.8872    15.3867   -17.5888 H          1  LIG1   0.4400
      6 H3        -17.2795    14.6455   -17.1124 H          1  LIG1   0.4300
      7 C3        -17.5259    16.6017   -17.6387 C.3        1  LIG1   0.0000
      8 C4        -17.8578    16.2869   -19.0988 C.3        1  LIG1  -0.1000
      9 C5        -18.6613    17.4184   -19.6865 C.2        1  LIG1   0.3900
     10 N2        -18.0240    18.3923   -20.2617 N.2        1  LIG1  -0.5100
     11 C6        -18.6798    19.4440   -20.8133 C.ar       1  LIG1   0.1400
     12 C7        -17.9954    20.4913   -21.4325 C.ar       1  LIG1  -0.1000
     13 C8        -18.7022    21.5388   -21.9796 C.ar       1  LIG1  -0.0700
     14 C9        -20.0892    21.5674   -21.9235 C.ar       1  LIG1  -0.1200
     15 C10       -20.7874    20.5455   -21.3173 C.ar       1  LIG1  -0.0400
     16 C11       -20.0913    19.4763   -20.7581 C.ar       1  LIG1  -0.1900
     17 C12       -20.7820    18.3583   -20.0982 C.2        1  LIG1   0.5500
     18 O1        -21.9959    18.3251   -20.0159 O.2        1  LIG1  -0.4900
     19 N3        -20.0155    17.3641   -19.5921 N.am       1  LIG1  -0.6500
     20 C13       -16.0733    14.5252   -14.9426 C.ar       1  LIG1   0.2700
     21 N4        -15.2231    14.5706   -13.9365 N.ar       1  LIG1  -0.5100
     22 C14       -14.8911    13.4712   -13.2792 C.ar       1  LIG1   0.2000
     23 C15       -15.4508    12.2615   -13.6623 C.ar       1  LIG1  -0.1900
     24 Br1       -15.0111    10.6608   -12.7565 Br         1  LIG1   0.0300
     25 C16       -16.3413    12.2544   -14.7254 C.ar       1  LIG1   0.2000
     26 N5        -16.6291    13.3951   -15.3312 N.ar       1  LIG1  -0.4800
     27 H4        -14.3713    16.3006   -16.0849 H          1  LIG1   0.1100
     28 H5        -15.4891    17.6851   -16.1291 H          1  LIG1   0.0900
     29 H6        -14.9989    16.9867   -14.5671 H          1  LIG1   0.1000
     30 H7        -18.4504    16.7226   -17.0741 H          1  LIG1   0.1500
     31 H8        -16.9463    17.5233   -17.5885 H          1  LIG1   0.1500
     32 H9        -16.9336    16.1660   -19.6636 H          1  LIG1   0.1200
     33 H10       -18.4376    15.3652   -19.1491 H          1  LIG1   0.1200
     34 H11       -16.9166    20.4802   -21.4819 H          1  LIG1   0.1400
     35 H12       -18.1711    22.3484   -22.4579 H          1  LIG1   0.1400
     36 H13       -20.6256    22.3978   -22.3582 H          1  LIG1   0.1400
     37 H14       -21.8661    20.5732   -21.2763 H          1  LIG1   0.1400
     38 H15       -20.4366    16.6103   -19.1501 H          1  LIG1   0.4200
     39 H16       -14.1934    13.5153   -12.4559 H          1  LIG1   0.1900
     40 H17       -16.7969    11.3312   -15.0518 H          1  LIG1   0.1900
@<TRIPOS>BOND
     1    1    2 1
     2    1   27 1
     3    1   28 1
     4    1   29 1
     5    2    3 1
     6    2    4 1
     7    2   20 1
     8    4    5 1
     9    4    6 1
    10    4    7 1
    11    7    8 1
    12    7   30 1
    13    7   31 1
    14    8    9 1
    15    8   32 1
    16    8   33 1
    17    9   19 1
    18    9   10 2
    19   10   11 1
    20   11   16 ar
    21   11   12 ar
    22   12   13 ar
    23   12   34 1
    24   13   14 ar
    25   13   35 1
    26   14   15 ar
    27   14   36 1
    28   15   16 ar
    29   15   37 1
    30   16   17 1
    31   17   18 2
    32   17   19 am
    33   19   38 1
    34   20   26 ar
    35   20   21 ar
    36   21   22 ar
    37   22   23 ar
    38   22   39 1
    39   23   24 1
    40   23   25 ar
    41   25   26 ar
    42   25   40 1
##########                 Name:     ZINC000495880797
##########          Protonation:                 none
##########               SMILES:   Cc1cncc([C@@H](C)[NH2+][C@@H](C)CCCNC(=O)OC(C)(C)C)c1
##########            Long Name:   NO_LONG_NAME
##########          FlexRecCode: 1
##########               Number:                12076
##########   Ligand Source File: /nfs/db/export/3D/DH/ADRO/DHADRO.xnq.db2.gz
##########                 Rank:                    1
##########               Setnum:                   38
##########             Matchnum:                    1
##########                Cloud:                    1
##########        Electrostatic:           -45.816174
##########                 Gist:             0.000000
##########        Van der Waals:           -23.804529
##########  Ligand Polar Desolv:            14.766098
########## Ligand Apolar Desolv:            -3.141411
##########      Internal Energy:             0.000000
##########      Receptor Energy:             0.000000
########## Receptor Desolvation:             0.000000
########## Receptor Hydrophobic:             0.000000
##########         Total Energy:           -57.996017
##########        Ligand Charge:             1.000000
##########            Arbitrary:    +999.9990
##########        Ligand Energy:             0.000000

@<TRIPOS>MOLECULE
 ZINC000495880797      none
   55    55     0     0     0



@<TRIPOS>ATOM
      1 C1        -15.2698    15.2689   -14.2952 C.3        1  LIG1  -0.1200
      2 C2        -15.3947    16.2130   -15.4633 C.ar       1  LIG1  -0.1100
      3 C3        -14.6452    17.3729   -15.5086 C.ar       1  LIG1   0.1200
      4 N1        -14.7487    18.2036   -16.5277 N.ar       1  LIG1  -0.4600
      5 C4        -15.5637    17.9653   -17.5364 C.ar       1  LIG1   0.0900
      6 C5        -16.3453    16.8255   -17.5599 C.ar       1  LIG1  -0.1900
      7 C6        -17.2745    16.5611   -18.7166 C.3        1  LIG1   0.0800
      8 H1        -17.1968    17.3741   -19.4383 H          1  LIG1   0.1500
      9 C7        -16.8883    15.2427   -19.3899 C.3        1  LIG1  -0.1800
     10 N2        -18.6560    16.4734   -18.2246 N.4        1  LIG1  -0.5100
     11 H2        -18.8151    15.5582   -17.8306 H          1  LIG1   0.4300
     12 H3        -18.8057    17.1756   -17.5157 H          1  LIG1   0.4200
     13 C8        -19.5874    16.6957   -19.3385 C.3        1  LIG1   0.0200
     14 H4        -19.2130    16.1943   -20.2309 H          1  LIG1   0.1400
     15 C9        -20.9618    16.1303   -18.9747 C.3        1  LIG1  -0.1800
     16 C10       -19.7090    18.1966   -19.6099 C.3        1  LIG1  -0.1400
     17 C11       -20.2478    18.4170   -21.0248 C.3        1  LIG1  -0.1500
     18 C12       -20.3694    19.9178   -21.2961 C.3        1  LIG1   0.1400
     19 N3        -19.0512    20.5448   -21.1725 N.am       1  LIG1  -0.7200
     20 C13       -18.2483    20.6439   -22.2503 C.2        1  LIG1   0.6500
     21 O1        -18.6179    20.2133   -23.3249 O.2        1  LIG1  -0.5600
     22 O2        -17.0368    21.2201   -22.1369 O.3        1  LIG1  -0.3600
     23 C14       -16.2258    21.2925   -23.3391 C.3        1  LIG1   0.1400
     24 C15       -16.9670    22.1006   -24.4062 C.3        1  LIG1  -0.1800
     25 C16       -14.8948    21.9742   -23.0161 C.3        1  LIG1  -0.1400
     26 C17       -15.9615    19.8791   -23.8618 C.3        1  LIG1  -0.1900
     27 C18       -16.2593    15.9258   -16.5088 C.ar       1  LIG1  -0.0500
     28 H5        -14.5468    15.6661   -13.5829 H          1  LIG1   0.0800
     29 H6        -16.2393    15.1632   -13.8083 H          1  LIG1   0.0800
     30 H7        -14.9332    14.2948   -14.6498 H          1  LIG1   0.0800
     31 H8        -13.9667    17.6020   -14.7001 H          1  LIG1   0.1700
     32 H9        -15.6216    18.6690   -18.3537 H          1  LIG1   0.1500
     33 H10       -17.5603    15.0513   -20.2265 H          1  LIG1   0.1100
     34 H11       -15.8632    15.3078   -19.7549 H          1  LIG1   0.0800
     35 H12       -16.9660    14.4296   -18.6681 H          1  LIG1   0.0900
     36 H13       -21.6529    16.2953   -19.8014 H          1  LIG1   0.0800
     37 H14       -20.8753    15.0610   -18.7816 H          1  LIG1   0.0800
     38 H15       -21.3364    16.6317   -18.0823 H          1  LIG1   0.1100
     39 H16       -20.3924    18.6422   -18.8872 H          1  LIG1   0.1200
     40 H17       -18.7281    18.6629   -19.5179 H          1  LIG1   0.1000
     41 H18       -19.5643    17.9714   -21.7474 H          1  LIG1   0.0600
     42 H19       -21.2287    17.9505   -21.1168 H          1  LIG1   0.0900
     43 H20       -20.7532    20.0748   -22.3042 H          1  LIG1   0.0800
     44 H21       -21.0530    20.3636   -20.5735 H          1  LIG1   0.0800
     45 H22       -18.7561    20.8886   -20.3148 H          1  LIG1   0.4100
     46 H23       -16.3583    22.1549   -25.3087 H          1  LIG1   0.0600
     47 H24       -17.9152    21.6149   -24.6363 H          1  LIG1   0.0800
     48 H25       -17.1554    23.1076   -24.0338 H          1  LIG1   0.0900
     49 H26       -14.2860    22.0285   -23.9187 H          1  LIG1   0.0700
     50 H27       -15.0832    22.9811   -22.6438 H          1  LIG1   0.0900
     51 H28       -14.3667    21.3986   -22.2559 H          1  LIG1   0.0700
     52 H29       -15.3527    19.9334   -24.7643 H          1  LIG1   0.0900
     53 H30       -15.4334    19.3034   -23.1016 H          1  LIG1   0.0800
     54 H31       -16.9098    19.3935   -24.0920 H          1  LIG1   0.0600
     55 H32       -16.8579    15.0268   -16.5002 H          1  LIG1   0.1500
@<TRIPOS>BOND
     1    1    2 1
     2    1   28 1
     3    1   29 1
     4    1   30 1
     5    2   27 ar
     6    2    3 ar
     7    3    4 ar
     8    3   31 1
     9    4    5 ar
    10    5    6 ar
    11    5   32 1
    12    6    7 1
    13    6   27 ar
    14    7    8 1
    15    7    9 1
    16    7   10 1
    17    9   33 1
    18    9   34 1
    19    9   35 1
    20   10   11 1
    21   10   12 1
    22   10   13 1
    23   13   14 1
    24   13   15 1
    25   13   16 1
    26   15   36 1
    27   15   37 1
    28   15   38 1
    29   16   17 1
    30   16   39 1
    31   16   40 1
    32   17   18 1
    33   17   41 1
    34   17   42 1
    35   18   19 1
    36   18   43 1
    37   18   44 1
    38   19   20 am
    39   19   45 1
    40   20   21 2
    41   20   22 1
    42   22   23 1
    43   23   24 1
    44   23   25 1
    45   23   26 1
    46   24   46 1
    47   24   47 1
    48   24   48 1
    49   25   49 1
    50   25   50 1
    51   25   51 1
    52   26   52 1
    53   26   53 1
    54   26   54 1
    55   27   55 1
##########                 Name:     ZINC000474810522
##########          Protonation:                 none
##########               SMILES:   C[C@@H](C[NH2+][C@@H](C)C1CCSCC1)Oc1cccc(Cl)c1
##########            Long Name:   NO_LONG_NAME
##########          FlexRecCode: 1
##########               Number:                 5846
##########   Ligand Source File: /nfs/db/export/3D/DI/ADRO/DIADRO.xek.db2.gz
##########                 Rank:                    1
##########               Setnum:                  238
##########             Matchnum:                    1
##########                Cloud:                    1
##########        Electrostatic:           -37.033211
##########                 Gist:             0.000000
##########        Van der Waals:           -27.897186
##########  Ligand Polar Desolv:            12.845189
########## Ligand Apolar Desolv:            -5.915834
##########      Internal Energy:             0.000000
##########      Receptor Energy:             0.000000
########## Receptor Desolvation:             0.000000
########## Receptor Hydrophobic:             0.000000
##########         Total Energy:           -58.001041
##########        Ligand Charge:             1.000000
##########            Arbitrary:    +999.9990
##########        Ligand Energy:             0.000000

@<TRIPOS>MOLECULE
 ZINC000474810522      none
   45    46     0     0     0



@<TRIPOS>ATOM
      1 C1        -17.2683    17.5856   -15.3551 C.3        1  LIG1  -0.1800
      2 C2        -16.8527    16.5436   -16.3957 C.3        1  LIG1   0.0600
      3 H1        -17.3918    15.6139   -16.2142 H          1  LIG1   0.1000
      4 C3        -17.1852    17.0612   -17.7966 C.3        1  LIG1  -0.0100
      5 N1        -18.6141    16.8556   -18.0681 N.4        1  LIG1  -0.5100
      6 H2        -18.8288    15.8712   -18.0135 H          1  LIG1   0.4300
      7 H3        -19.1618    17.3576   -17.3854 H          1  LIG1   0.4200
      8 C4        -18.9334    17.3523   -19.4133 C.3        1  LIG1   0.0300
      9 H4        -18.3941    18.2820   -19.5947 H          1  LIG1   0.1400
     10 C5        -18.5177    16.3103   -20.4536 C.3        1  LIG1  -0.1900
     11 C6        -20.4384    17.6067   -19.5192 C.3        1  LIG1  -0.1200
     12 C7        -20.7593    18.1513   -20.9080 C.3        1  LIG1  -0.1300
     13 C8        -22.2004    18.6668   -20.9469 C.3        1  LIG1  -0.0900
     14 S1        -23.3299    17.2749   -20.6458 S.3        1  LIG1  -0.2300
     15 C9        -22.6829    16.5830   -19.0947 C.3        1  LIG1  -0.0900
     16 C10       -21.1875    16.3022   -19.2643 C.3        1  LIG1  -0.1200
     17 O1        -15.4470    16.3063   -16.2968 O.3        1  LIG1  -0.3200
     18 C11       -15.0457    15.3205   -15.4517 C.ar       1  LIG1   0.1200
     19 C12       -15.4751    14.0167   -15.6516 C.ar       1  LIG1  -0.2000
     20 C13       -15.0662    13.0158   -14.7913 C.ar       1  LIG1  -0.0600
     21 C14       -14.2298    13.3122   -13.7316 C.ar       1  LIG1  -0.1300
     22 C15       -13.8001    14.6123   -13.5291 C.ar       1  LIG1   0.0000
     23 Cl1       -12.7497    14.9815   -12.1972 Cl         1  LIG1  -0.0400
     24 C16       -14.2017    15.6158   -14.3910 C.ar       1  LIG1  -0.1400
     25 H5        -16.7291    18.5154   -15.5366 H          1  LIG1   0.0900
     26 H6        -18.3405    17.7668   -15.4306 H          1  LIG1   0.0900
     27 H7        -17.0314    17.2171   -14.3571 H          1  LIG1   0.0800
     28 H8        -16.9534    18.1245   -17.8556 H          1  LIG1   0.1500
     29 H9        -16.5936    16.5188   -18.5341 H          1  LIG1   0.1500
     30 H10       -18.7547    16.6789   -21.4517 H          1  LIG1   0.1100
     31 H11       -17.4456    16.1291   -20.3782 H          1  LIG1   0.0900
     32 H12       -19.0570    15.3806   -20.2722 H          1  LIG1   0.0800
     33 H13       -20.7317    18.3416   -18.7696 H          1  LIG1   0.1000
     34 H14       -20.0765    18.9677   -21.1432 H          1  LIG1   0.0600
     35 H15       -20.6390    17.3571   -21.6449 H          1  LIG1   0.1000
     36 H16       -22.3386    19.4230   -20.1741 H          1  LIG1   0.0900
     37 H17       -22.4071    19.0997   -21.9255 H          1  LIG1   0.1200
     38 H18       -22.8307    17.2987   -18.2860 H          1  LIG1   0.0900
     39 H19       -23.2050    15.6546   -18.8633 H          1  LIG1   0.1200
     40 H20       -21.0392    15.6288   -20.1086 H          1  LIG1   0.0900
     41 H21       -20.8021    15.8346   -18.3583 H          1  LIG1   0.0900
     42 H22       -16.1290    13.7841   -16.4791 H          1  LIG1   0.1400
     43 H23       -15.4008    12.0007   -14.9469 H          1  LIG1   0.1400
     44 H24       -13.9114    12.5284   -13.0602 H          1  LIG1   0.1400
     45 H25       -13.8662    16.6302   -14.2333 H          1  LIG1   0.1400
@<TRIPOS>BOND
     1    1    2 1
     2    1   25 1
     3    1   26 1
     4    1   27 1
     5    2    3 1
     6    2    4 1
     7    2   17 1
     8    4    5 1
     9    4   28 1
    10    4   29 1
    11    5    6 1
    12    5    7 1
    13    5    8 1
    14    8    9 1
    15    8   10 1
    16    8   11 1
    17   10   30 1
    18   10   31 1
    19   10   32 1
    20   11   16 1
    21   11   12 1
    22   11   33 1
    23   12   13 1
    24   12   34 1
    25   12   35 1
    26   13   14 1
    27   13   36 1
    28   13   37 1
    29   14   15 1
    30   15   16 1
    31   15   38 1
    32   15   39 1
    33   16   40 1
    34   16   41 1
    35   17   18 1
    36   18   24 ar
    37   18   19 ar
    38   19   20 ar
    39   19   42 1
    40   20   21 ar
    41   20   43 1
    42   21   22 ar
    43   21   44 1
    44   22   23 1
    45   22   24 ar
    46   24   45 1
##########                 Name:     ZINC000443500799
##########          Protonation:                 none
##########               SMILES:   C[C@@H](COCC1=CC=CC=C1)NC1=[NH+]C2=CC=CC(F)=C2N1C
##########            Long Name:   NO_LONG_NAME
##########          FlexRecCode: 1
##########               Number:                 9830
##########   Ligand Source File: /nfs/db/export/3D/DG/ADMO/DGADMO.xagx.db2.gz
##########                 Rank:                    1
##########               Setnum:                  186
##########             Matchnum:                    1
##########                Cloud:                    1
##########        Electrostatic:           -33.586300
##########                 Gist:             0.000000
##########        Van der Waals:           -27.826176
##########  Ligand Polar Desolv:             9.542821
########## Ligand Apolar Desolv:            -6.127479
##########      Internal Energy:             0.000000
##########      Receptor Energy:             0.000000
########## Receptor Desolvation:             0.000000
########## Receptor Hydrophobic:             0.000000
##########         Total Energy:           -57.997131
##########        Ligand Charge:             1.000000
##########            Arbitrary:    +999.9990
##########        Ligand Energy:             0.000000

@<TRIPOS>MOLECULE
 ZINC000443500799      none
   44    46     0     0     0



@<TRIPOS>ATOM
      1 C1        -19.9718    17.3695   -18.3580 C.3        1  LIG1  -0.1800
      2 C2        -18.7205    16.8871   -19.0948 C.3        1  LIG1   0.1400
      3 H1        -18.6067    15.8125   -18.9524 H          1  LIG1   0.1100
      4 C3        -18.8585    17.1921   -20.5877 C.3        1  LIG1   0.0500
      5 O1        -18.5438    18.5657   -20.8243 O.3        1  LIG1  -0.3800
      6 C4        -18.6423    18.9568   -22.1953 C.3        1  LIG1   0.1100
      7 C5        -17.8477    20.2180   -22.4163 C.ar       1  LIG1  -0.1000
      8 C6        -18.4503    21.4516   -22.2557 C.ar       1  LIG1  -0.1000
      9 C7        -17.7215    22.6086   -22.4584 C.ar       1  LIG1  -0.1200
     10 C8        -16.3898    22.5320   -22.8212 C.ar       1  LIG1  -0.1100
     11 C9        -15.7869    21.2983   -22.9808 C.ar       1  LIG1  -0.1200
     12 C10       -16.5146    20.1414   -22.7741 C.ar       1  LIG1  -0.1000
     13 N1        -17.5434    17.5776   -18.5620 N.pl3      1  LIG1  -0.6700
     14 C11       -16.8471    17.0358   -17.5021 C.cat      1  LIG1   0.6500
     15 N2        -17.1459    15.9107   -16.9020 N.pl3      1  LIG1  -0.5400
     16 H2        -17.8893    15.3329   -17.1355 H          1  LIG1   0.4600
     17 C12       -16.2555    15.6756   -15.9025 C.ar       1  LIG1   0.0900
     18 C13       -16.1104    14.6461   -14.9688 C.ar       1  LIG1  -0.0900
     19 C14       -15.0799    14.6893   -14.0564 C.ar       1  LIG1  -0.0500
     20 C15       -14.1839    15.7476   -14.0559 C.ar       1  LIG1  -0.1100
     21 C16       -14.3132    16.7738   -14.9725 C.ar       1  LIG1   0.1400
     22 F1        -13.4363    17.8016   -14.9667 F          1  LIG1  -0.1200
     23 C17       -15.3461    16.7452   -15.8993 C.ar       1  LIG1   0.0400
     24 N3        -15.7402    17.5893   -16.9260 N.pl3      1  LIG1  -0.4700
     25 C18       -15.0915    18.8431   -17.3176 C.3        1  LIG1   0.0600
     26 H3        -20.0856    18.4442   -18.5004 H          1  LIG1   0.0900
     27 H4        -20.8475    16.8557   -18.7542 H          1  LIG1   0.0900
     28 H5        -19.8735    17.1524   -17.2943 H          1  LIG1   0.0600
     29 H6        -18.1732    16.5598   -21.1524 H          1  LIG1   0.0700
     30 H7        -19.8818    16.9937   -20.9060 H          1  LIG1   0.0900
     31 H8        -18.2471    18.1626   -22.8288 H          1  LIG1   0.0600
     32 H9        -19.6872    19.1368   -22.4476 H          1  LIG1   0.0700
     33 H10       -19.4907    21.5115   -21.9722 H          1  LIG1   0.1200
     34 H11       -18.1927    23.5725   -22.3336 H          1  LIG1   0.1300
     35 H12       -15.8206    23.4358   -22.9803 H          1  LIG1   0.1300
     36 H13       -14.7465    21.2384   -23.2647 H          1  LIG1   0.1300
     37 H14       -16.0436    19.1776   -22.8987 H          1  LIG1   0.1200
     38 H15       -17.2539    18.4160   -18.9547 H          1  LIG1   0.4400
     39 H16       -16.8048    13.8189   -14.9626 H          1  LIG1   0.1600
     40 H17       -14.9689    13.8930   -13.3354 H          1  LIG1   0.1700
     41 H18       -13.3803    15.7702   -13.3346 H          1  LIG1   0.1700
     42 H19       -14.2308    19.0235   -16.6735 H          1  LIG1   0.1000
     43 H20       -14.7613    18.7731   -18.3540 H          1  LIG1   0.1000
     44 H21       -15.7996    19.6656   -17.2166 H          1  LIG1   0.1200
@<TRIPOS>BOND
     1    1    2 1
     2    1   26 1
     3    1   27 1
     4    1   28 1
     5    2    3 1
     6    2    4 1
     7    2   13 1
     8    4    5 1
     9    4   29 1
    10    4   30 1
    11    5    6 1
    12    6    7 1
    13    6   31 1
    14    6   32 1
    15    7   12 ar
    16    7    8 ar
    17    8    9 ar
    18    8   33 1
    19    9   10 ar
    20    9   34 1
    21   10   11 ar
    22   10   35 1
    23   11   12 ar
    24   11   36 1
    25   12   37 1
    26   13   14 1
    27   13   38 1
    28   14   24 1
    29   14   15 1
    30   15   16 1
    31   15   17 1
    32   17   23 ar
    33   17   18 ar
    34   18   19 ar
    35   18   39 1
    36   19   20 ar
    37   19   40 1
    38   20   21 ar
    39   20   41 1
    40   21   22 1
    41   21   23 ar
    42   23   24 1
    43   24   25 1
    44   25   42 1
    45   25   43 1
    46   25   44 1
##########                 Name:     ZINC000281183080
##########          Protonation:                 none
##########               SMILES:   CN1C(=O)N(CCC(=O)NC2(C[NH+](C)C)CCC2)C2=CC=CC=C21
##########            Long Name:   NO_LONG_NAME
##########          FlexRecCode: 1
##########               Number:                12875
##########   Ligand Source File: /nfs/db/export/3D/ED/ADRO/EDADRO.xdqx.db2.gz
##########                 Rank:                    1
##########               Setnum:                   39
##########             Matchnum:                    1
##########                Cloud:                    1
##########        Electrostatic:           -34.663109
##########                 Gist:             0.000000
##########        Van der Waals:           -30.857374
##########  Ligand Polar Desolv:            13.073238
########## Ligand Apolar Desolv:            -5.549366
##########      Internal Energy:             0.000000
##########      Receptor Energy:             0.000000
########## Receptor Desolvation:             0.000000
########## Receptor Hydrophobic:             0.000000
##########         Total Energy:           -57.996613
##########        Ligand Charge:             1.000000
##########            Arbitrary:    +999.9990
##########        Ligand Energy:             0.000000

@<TRIPOS>MOLECULE
 ZINC000281183080      none
   51    53     0     0     0



@<TRIPOS>ATOM
      1 C1        -12.5515    15.1831   -12.7297 C.3        1  LIG1   0.1000
      2 N1        -13.7009    14.9896   -13.6172 N.am       1  LIG1  -0.5400
      3 C2        -14.1878    15.8966   -14.4849 C.2        1  LIG1   0.6800
      4 O1        -13.7389    17.0147   -14.6555 O.2        1  LIG1  -0.5600
      5 N2        -15.2471    15.3791   -15.1353 N.am       1  LIG1  -0.5400
      6 C3        -16.0435    16.0628   -16.1571 C.3        1  LIG1   0.1500
      7 C4        -17.1989    16.8099   -15.4879 C.3        1  LIG1  -0.1600
      8 C5        -18.0182    17.5132   -16.5391 C.2        1  LIG1   0.5300
      9 O2        -18.1419    18.7192   -16.5052 O.2        1  LIG1  -0.5100
     10 N3        -18.6134    16.8021   -17.5172 N.am       1  LIG1  -0.7300
     11 C6        -19.4097    17.4859   -18.5390 C.3        1  LIG1   0.1200
     12 C7        -18.5542    18.2956   -19.5156 C.3        1  LIG1  -0.0100
     13 N4        -17.3358    17.5420   -19.8402 N.4        1  LIG1  -0.3800
     14 H1        -16.8111    17.3707   -18.9956 H          1  LIG1   0.4200
     15 C8        -17.7025    16.2601   -20.4571 C.3        1  LIG1  -0.0600
     16 C9        -16.5144    18.3194   -20.7776 C.3        1  LIG1  -0.0500
     17 C10       -20.4401    16.5757   -19.2284 C.3        1  LIG1  -0.1500
     18 C11       -21.4231    16.9790   -18.1167 C.3        1  LIG1  -0.1400
     19 C12       -20.6023    18.2709   -17.9679 C.3        1  LIG1  -0.1300
     20 C13       -15.4565    14.0827   -14.6709 C.ar       1  LIG1   0.0800
     21 C14       -16.3852    13.1004   -14.9781 C.ar       1  LIG1  -0.1000
     22 C15       -16.3364    11.8812   -14.3303 C.ar       1  LIG1  -0.1100
     23 C16       -15.3644    11.6364   -13.3760 C.ar       1  LIG1  -0.1000
     24 C17       -14.4349    12.6094   -13.0628 C.ar       1  LIG1  -0.1000
     25 C18       -14.4724    13.8337   -13.7116 C.ar       1  LIG1   0.0900
     26 H2        -12.1463    16.1846   -12.8731 H          1  LIG1   0.0700
     27 H3        -12.8684    15.0641   -11.6936 H          1  LIG1   0.0900
     28 H4        -11.7846    14.4442   -12.9622 H          1  LIG1   0.0900
     29 H5        -15.4140    16.7728   -16.6936 H          1  LIG1   0.1000
     30 H6        -16.4425    15.3292   -16.8577 H          1  LIG1   0.1000
     31 H7        -17.8283    16.1000   -14.9514 H          1  LIG1   0.1100
     32 H8        -16.7998    17.5434   -14.7872 H          1  LIG1   0.1100
     33 H9        -18.5147    15.8376   -17.5442 H          1  LIG1   0.4100
     34 H10       -19.1209    18.4805   -20.4280 H          1  LIG1   0.1400
     35 H11       -18.2820    19.2466   -19.0577 H          1  LIG1   0.1400
     36 H12       -16.7983    15.7011   -20.6979 H          1  LIG1   0.1300
     37 H13       -18.3120    15.6833   -19.7615 H          1  LIG1   0.1200
     38 H14       -18.2693    16.4451   -21.3696 H          1  LIG1   0.1300
     39 H15       -15.6103    17.7601   -21.0185 H          1  LIG1   0.1200
     40 H16       -17.0811    18.5045   -21.6901 H          1  LIG1   0.1300
     41 H17       -16.2422    19.2704   -20.3198 H          1  LIG1   0.1200
     42 H18       -20.7350    16.9222   -20.2189 H          1  LIG1   0.1100
     43 H19       -20.1705    15.5197   -19.2110 H          1  LIG1   0.0900
     44 H20       -22.4398    17.1461   -18.4723 H          1  LIG1   0.0900
     45 H21       -21.3810    16.3316   -17.2407 H          1  LIG1   0.0900
     46 H22       -20.4637    18.5834   -16.9327 H          1  LIG1   0.0900
     47 H23       -20.9417    19.0808   -18.6136 H          1  LIG1   0.1000
     48 H24       -17.1454    13.2880   -15.7219 H          1  LIG1   0.1300
     49 H25       -17.0600    11.1160   -14.5693 H          1  LIG1   0.1400
     50 H26       -15.3326    10.6808   -12.8737 H          1  LIG1   0.1400
     51 H27       -13.6783    12.4149   -12.3170 H          1  LIG1   0.1300
@<TRIPOS>BOND
     1    1    2 1
     2    1   26 1
     3    1   27 1
     4    1   28 1
     5    2   25 1
     6    2    3 am
     7    3    4 2
     8    3    5 am
     9    5    6 1
    10    5   20 1
    11    6    7 1
    12    6   29 1
    13    6   30 1
    14    7    8 1
    15    7   31 1
    16    7   32 1
    17    8    9 2
    18    8   10 am
    19   10   11 1
    20   10   33 1
    21   11   19 1
    22   11   12 1
    23   11   17 1
    24   12   13 1
    25   12   34 1
    26   12   35 1
    27   13   14 1
    28   13   15 1
    29   13   16 1
    30   15   36 1
    31   15   37 1
    32   15   38 1
    33   16   39 1
    34   16   40 1
    35   16   41 1
    36   17   18 1
    37   17   42 1
    38   17   43 1
    39   18   19 1
    40   18   44 1
    41   18   45 1
    42   19   46 1
    43   19   47 1
    44   20   25 ar
    45   20   21 ar
    46   21   22 ar
    47   21   48 1
    48   22   23 ar
    49   22   49 1
    50   23   24 ar
    51   23   50 1
    52   24   25 ar
    53   24   51 1
##########                 Name:     ZINC000653191880
##########          Protonation:                 none
##########               SMILES:   CC(C)(C(=O)NC1=CC2=C(CCCC2)NC1=O)[C@@H]([NH3+])C1=CC=CC=C1
##########            Long Name:   NO_LONG_NAME
##########          FlexRecCode: 1
##########               Number:                 6793
##########   Ligand Source File: /nfs/db/export/3D/EG/ADRO/EGADRO.xbyd.db2.gz
##########                 Rank:                    1
##########               Setnum:                    3
##########             Matchnum:                    1
##########                Cloud:                    1
##########        Electrostatic:           -36.584045
##########                 Gist:             0.000000
##########        Van der Waals:           -32.796997
##########  Ligand Polar Desolv:            14.712617
########## Ligand Apolar Desolv:            -3.332664
##########      Internal Energy:             0.000000
##########      Receptor Energy:             0.000000
########## Receptor Desolvation:             0.000000
########## Receptor Hydrophobic:             0.000000
##########         Total Energy:           -58.001091
##########        Ligand Charge:             1.000000
##########            Arbitrary:    +999.9990
##########        Ligand Energy:             0.000000

@<TRIPOS>MOLECULE
 ZINC000653191880      none
   51    53     0     0     0



@<TRIPOS>ATOM
      1 C1        -18.3777    18.0805   -18.1438 C.3        1  LIG1  -0.1700
      2 C2        -17.1310    17.4384   -18.7559 C.3        1  LIG1  -0.0900
      3 C3        -16.1615    18.5336   -19.2050 C.3        1  LIG1  -0.1500
      4 C4        -16.4600    16.5643   -17.7279 C.2        1  LIG1   0.5300
      5 O1        -16.3188    15.3782   -17.9395 O.2        1  LIG1  -0.5400
      6 N1        -16.0168    17.1002   -16.5735 N.am       1  LIG1  -0.6300
      7 C5        -15.3928    16.2872   -15.6176 C.2        1  LIG1  -0.0100
      8 C6        -15.7255    14.9685   -15.5042 C.2        1  LIG1   0.0000
      9 C7        -15.0863    14.1621   -14.5414 C.2        1  LIG1  -0.1800
     10 C8        -14.1473    14.6981   -13.7372 C.2        1  LIG1   0.1800
     11 C9        -13.4117    13.8949   -12.6948 C.3        1  LIG1  -0.1000
     12 C10       -14.1566    12.5984   -12.3858 C.3        1  LIG1  -0.1200
     13 C11       -14.4615    11.8920   -13.7126 C.3        1  LIG1  -0.1300
     14 C12       -15.5046    12.7169   -14.4632 C.3        1  LIG1  -0.0600
     15 N2        -13.8216    16.0223   -13.8472 N.am       1  LIG1  -0.6000
     16 C13       -14.4049    16.8169   -14.7591 C.2        1  LIG1   0.5300
     17 O2        -14.0901    17.9935   -14.8384 O.2        1  LIG1  -0.5500
     18 C14       -17.5350    16.5887   -19.9624 C.3        1  LIG1   0.1100
     19 H1        -16.6469    16.1313   -20.3985 H          1  LIG1   0.1500
     20 N3        -18.4658    15.5373   -19.5312 N.4        1  LIG1  -0.6400
     21 H2        -19.2878    15.9607   -19.1276 H          1  LIG1   0.4200
     22 H3        -18.7322    14.9769   -20.3269 H          1  LIG1   0.4400
     23 H4        -18.0166    14.9520   -18.8430 H          1  LIG1   0.4400
     24 C15       -18.2059    17.4629   -20.9904 C.ar       1  LIG1  -0.1400
     25 C16       -19.5749    17.6513   -20.9500 C.ar       1  LIG1  -0.1200
     26 C17       -20.1903    18.4532   -21.8929 C.ar       1  LIG1  -0.1000
     27 C18       -19.4369    19.0671   -22.8759 C.ar       1  LIG1  -0.0900
     28 C19       -18.0679    18.8794   -22.9158 C.ar       1  LIG1  -0.1100
     29 C20       -17.4519    18.0809   -21.9704 C.ar       1  LIG1  -0.0800
     30 H5        -19.0684    17.3002   -17.8240 H          1  LIG1   0.1000
     31 H6        -18.0898    18.6857   -17.2842 H          1  LIG1   0.0600
     32 H7        -18.8629    18.7128   -18.8873 H          1  LIG1   0.0900
     33 H8        -15.2734    18.0762   -19.6410 H          1  LIG1   0.0800
     34 H9        -16.6468    19.1660   -19.9483 H          1  LIG1   0.0800
     35 H10       -15.8737    19.1388   -18.3453 H          1  LIG1   0.0900
     36 H11       -16.1298    18.0486   -16.4042 H          1  LIG1   0.4200
     37 H12       -16.4783    14.5434   -16.1514 H          1  LIG1   0.1400
     38 H13       -12.4141    13.6564   -13.0635 H          1  LIG1   0.1000
     39 H14       -13.3247    14.4850   -11.7825 H          1  LIG1   0.0900
     40 H15       -13.5344    11.9567   -11.7621 H          1  LIG1   0.0800
     41 H16       -15.0883    12.8244   -11.8671 H          1  LIG1   0.0700
     42 H17       -13.5516    11.8199   -14.3083 H          1  LIG1   0.0700
     43 H18       -14.8534    10.8941   -13.5163 H          1  LIG1   0.0800
     44 H19       -16.4596    12.6474   -13.9424 H          1  LIG1   0.0800
     45 H20       -15.6172    12.3206   -15.4723 H          1  LIG1   0.0800
     46 H21       -13.1500    16.3953   -13.2549 H          1  LIG1   0.4200
     47 H22       -20.1635    17.1717   -20.1819 H          1  LIG1   0.1200
     48 H23       -21.2598    18.5998   -21.8618 H          1  LIG1   0.1400
     49 H24       -19.9178    19.6929   -23.6131 H          1  LIG1   0.1400
     50 H25       -17.4793    19.3587   -23.6840 H          1  LIG1   0.1400
     51 H26       -16.3823    17.9344   -22.0014 H          1  LIG1   0.1300
@<TRIPOS>BOND
     1    1    2 1
     2    1   30 1
     3    1   31 1
     4    1   32 1
     5    2    3 1
     6    2    4 1
     7    2   18 1
     8    3   33 1
     9    3   34 1
    10    3   35 1
    11    4    5 2
    12    4    6 am
    13    6    7 1
    14    6   36 1
    15    7   16 1
    16    7    8 2
    17    8    9 1
    18    8   37 1
    19    9   14 1
    20    9   10 2
    21   10   11 1
    22   10   15 1
    23   11   12 1
    24   11   38 1
    25   11   39 1
    26   12   13 1
    27   12   40 1
    28   12   41 1
    29   13   14 1
    30   13   42 1
    31   13   43 1
    32   14   44 1
    33   14   45 1
    34   15   16 am
    35   15   46 1
    36   16   17 2
    37   18   19 1
    38   18   20 1
    39   18   24 1
    40   20   21 1
    41   20   22 1
    42   20   23 1
    43   24   29 ar
    44   24   25 ar
    45   25   26 ar
    46   25   47 1
    47   26   27 ar
    48   26   48 1
    49   27   28 ar
    50   27   49 1
    51   28   29 ar
    52   28   50 1
    53   29   51 1
##########                 Name:     ZINC000415558697
##########          Protonation:                 none
##########               SMILES:   CCCC[C@H](C[NH3+])NC(=O)NC1=CN(C2=CC=C(C)C=C2C)N=C1
##########            Long Name:   NO_LONG_NAME
##########          FlexRecCode: 1
##########               Number:                 1416
##########   Ligand Source File: /nfs/db/export/3D/EG/ADRO/EGADRO.xanj.db2.gz
##########                 Rank:                    1
##########               Setnum:                   89
##########             Matchnum:                    1
##########                Cloud:                    1
##########        Electrostatic:           -34.193825
##########                 Gist:             0.000000
##########        Van der Waals:           -32.700912
##########  Ligand Polar Desolv:            13.176482
########## Ligand Apolar Desolv:            -4.276835
##########      Internal Energy:             0.000000
##########      Receptor Energy:             0.000000
########## Receptor Desolvation:             0.000000
########## Receptor Hydrophobic:             0.000000
##########         Total Energy:           -57.995090
##########        Ligand Charge:             1.000000
##########            Arbitrary:    +999.9990
##########        Ligand Energy:             0.000000

@<TRIPOS>MOLECULE
 ZINC000415558697      none
   52    53     0     0     0



@<TRIPOS>ATOM
      1 C1        -18.0247    20.4413   -22.9549 C.3        1  LIG1  -0.1600
      2 C2        -17.2788    19.1488   -23.2929 C.3        1  LIG1  -0.1300
      3 C3        -17.1880    18.2706   -22.0433 C.3        1  LIG1  -0.1200
      4 C4        -18.5976    17.9328   -21.5538 C.3        1  LIG1  -0.1300
      5 C5        -18.5068    17.0546   -20.3043 C.3        1  LIG1   0.1400
      6 H1        -17.9755    16.1339   -20.5450 H          1  LIG1   0.1200
      7 C6        -19.9164    16.7168   -19.8147 C.3        1  LIG1  -0.0200
      8 N1        -19.8600    16.3056   -18.4056 N.4        1  LIG1  -0.6300
      9 H2        -20.7896    16.0828   -18.0828 H          1  LIG1   0.4300
     10 H3        -19.2691    15.4928   -18.3159 H          1  LIG1   0.4400
     11 H4        -19.4826    17.0588   -17.8502 H          1  LIG1   0.4300
     12 N2        -17.7842    17.7748   -19.2529 N.am       1  LIG1  -0.7500
     13 C7        -17.0609    17.0919   -18.3433 C.2        1  LIG1   0.7000
     14 O1        -17.0083    15.8781   -18.3953 O.2        1  LIG1  -0.5900
     15 N3        -16.3962    17.7544   -17.3760 N.am       1  LIG1  -0.6400
     16 C8        -15.6406    17.0410   -16.4256 C.2        1  LIG1   0.0000
     17 C9        -15.8956    15.7838   -15.9823 C.2        1  LIG1   0.0400
     18 N4        -14.9334    15.4663   -15.0736 N.pl3      1  LIG1  -0.3100
     19 C10       -14.8259    14.2568   -14.3738 C.ar       1  LIG1   0.1200
     20 C11       -15.7530    13.2457   -14.5861 C.ar       1  LIG1  -0.1100
     21 C12       -15.6443    12.0544   -13.8954 C.ar       1  LIG1  -0.1100
     22 C13       -14.6135    11.8687   -12.9927 C.ar       1  LIG1  -0.0700
     23 C14       -14.4980    10.5681   -12.2403 C.3        1  LIG1  -0.1200
     24 C15       -13.6880    12.8739   -12.7792 C.ar       1  LIG1  -0.1100
     25 C16       -13.7884    14.0651   -13.4708 C.ar       1  LIG1  -0.0600
     26 C17       -12.7796    15.1601   -13.2376 C.3        1  LIG1  -0.1100
     27 N5        -14.0693    16.5632   -14.9621 N.2        1  LIG1  -0.2600
     28 C18       -14.4870    17.5015   -15.7732 C.2        1  LIG1   0.0500
     29 H5        -18.0893    21.0670   -23.8452 H          1  LIG1   0.0600
     30 H6        -19.0289    20.2005   -22.6063 H          1  LIG1   0.0500
     31 H7        -17.4871    20.9770   -22.1725 H          1  LIG1   0.0600
     32 H8        -17.8164    18.6131   -24.0752 H          1  LIG1   0.0600
     33 H9        -16.2745    19.3896   -23.6415 H          1  LIG1   0.0700
     34 H10       -16.6565    17.3499   -22.2841 H          1  LIG1   0.0700
     35 H11       -16.6503    18.8063   -21.2611 H          1  LIG1   0.0700
     36 H12       -19.1289    18.8536   -21.3130 H          1  LIG1   0.0800
     37 H13       -19.1351    17.3971   -22.3362 H          1  LIG1   0.1000
     38 H14       -20.5549    17.5951   -19.9118 H          1  LIG1   0.1400
     39 H15       -20.3242    15.9032   -20.4147 H          1  LIG1   0.1500
     40 H16       -17.8262    18.7429   -19.2112 H          1  LIG1   0.4100
     41 H17       -16.4383    18.7226   -17.3343 H          1  LIG1   0.4100
     42 H18       -16.7131    15.1506   -16.2941 H          1  LIG1   0.1800
     43 H19       -16.5589    13.3904   -15.2907 H          1  LIG1   0.1300
     44 H20       -16.3653    11.2674   -14.0602 H          1  LIG1   0.1400
     45 H21       -13.6316    10.6059   -11.5802 H          1  LIG1   0.0800
     46 H22       -15.3994    10.4096   -11.6481 H          1  LIG1   0.0700
     47 H23       -14.3798     9.7479   -12.9485 H          1  LIG1   0.0700
     48 H24       -12.8838    12.7260   -12.0739 H          1  LIG1   0.1400
     49 H25       -12.0473    14.8286   -12.5014 H          1  LIG1   0.0800
     50 H26       -12.2733    15.3932   -14.1742 H          1  LIG1   0.0600
     51 H27       -13.2886    16.0503   -12.8682 H          1  LIG1   0.0700
     52 H28       -14.0265    18.4686   -15.9112 H          1  LIG1   0.2100
@<TRIPOS>BOND
     1    1    2 1
     2    1   29 1
     3    1   30 1
     4    1   31 1
     5    2    3 1
     6    2   32 1
     7    2   33 1
     8    3    4 1
     9    3   34 1
    10    3   35 1
    11    4    5 1
    12    4   36 1
    13    4   37 1
    14    5    6 1
    15    5    7 1
    16    5   12 1
    17    7    8 1
    18    7   38 1
    19    7   39 1
    20    8    9 1
    21    8   10 1
    22    8   11 1
    23   12   13 am
    24   12   40 1
    25   13   14 2
    26   13   15 am
    27   15   16 1
    28   15   41 1
    29   16   28 1
    30   16   17 2
    31   17   18 1
    32   17   42 1
    33   18   19 1
    34   18   27 1
    35   19   25 ar
    36   19   20 ar
    37   20   21 ar
    38   20   43 1
    39   21   22 ar
    40   21   44 1
    41   22   23 1
    42   22   24 ar
    43   23   45 1
    44   23   46 1
    45   23   47 1
    46   24   25 ar
    47   24   48 1
    48   25   26 1
    49   26   49 1
    50   26   50 1
    51   26   51 1
    52   27   28 2
    53   28   52 1
##########                 Name:     ZINC000343185691
##########          Protonation:                 none
##########               SMILES:   CN1C=CC(C[NH2+]CCCC2=CC=CC(Cl)=C2)=C1
##########            Long Name:   NO_LONG_NAME
##########          FlexRecCode: 1
##########               Number:                 5987
##########   Ligand Source File: /nfs/db/export/3D/CG/ADRO/CGADRO.xbyo.db2.gz
##########                 Rank:                    1
##########               Setnum:                  153
##########             Matchnum:                    1
##########                Cloud:                    1
##########        Electrostatic:           -35.363567
##########                 Gist:             0.000000
##########        Van der Waals:           -28.513056
##########  Ligand Polar Desolv:            12.165024
########## Ligand Apolar Desolv:            -6.283295
##########      Internal Energy:             0.000000
##########      Receptor Energy:             0.000000
########## Receptor Desolvation:             0.000000
########## Receptor Hydrophobic:             0.000000
##########         Total Energy:           -57.994896
##########        Ligand Charge:             1.000000
##########            Arbitrary:    +999.9990
##########        Ligand Energy:             0.000000

@<TRIPOS>MOLECULE
 ZINC000343185691      none
   38    39     0     0     0



@<TRIPOS>ATOM
      1 C1        -23.1790    15.8039   -19.9079 C.3        1  LIG1   0.0600
      2 N1        -22.0201    16.6982   -19.9691 N.pl3      1  LIG1  -0.4400
      3 C2        -21.9237    17.8223   -20.7346 C.2        1  LIG1   0.0000
      4 C3        -20.7121    18.3748   -20.5217 C.2        1  LIG1  -0.1800
      5 C4        -20.0358    17.5618   -19.5907 C.2        1  LIG1  -0.2500
      6 C5        -18.6467    17.7885   -19.0520 C.3        1  LIG1   0.0800
      7 N2        -18.3078    16.7178   -18.1052 N.4        1  LIG1  -0.5100
      8 H1        -18.9688    16.7212   -17.3428 H          1  LIG1   0.4300
      9 H2        -18.3441    15.8270   -18.5776 H          1  LIG1   0.4200
     10 C6        -16.9537    16.9387   -17.5801 C.3        1  LIG1  -0.0100
     11 C7        -16.6009    15.8235   -16.5938 C.3        1  LIG1  -0.1500
     12 C8        -15.1906    16.0537   -16.0470 C.3        1  LIG1  -0.0700
     13 C9        -14.8430    14.9553   -15.0756 C.ar       1  LIG1  -0.0900
     14 C10       -15.3857    13.6942   -15.2355 C.ar       1  LIG1  -0.1100
     15 C11       -15.0668    12.6857   -14.3450 C.ar       1  LIG1  -0.1000
     16 C12       -14.2055    12.9383   -13.2942 C.ar       1  LIG1  -0.1100
     17 C13       -13.6619    14.2006   -13.1335 C.ar       1  LIG1  -0.0300
     18 Cl1       -12.5795    14.5184   -11.8141 Cl         1  LIG1  -0.0600
     19 C14       -13.9769    15.2076   -14.0282 C.ar       1  LIG1  -0.1100
     20 C15       -20.8620    16.5468   -19.2657 C.2        1  LIG1   0.0400
     21 H3        -23.9577    16.1721   -20.5759 H          1  LIG1   0.0800
     22 H4        -22.8810    14.8015   -20.2151 H          1  LIG1   0.0900
     23 H5        -23.5604    15.7729   -18.8873 H          1  LIG1   0.0900
     24 H6        -22.6861    18.2043   -21.3974 H          1  LIG1   0.1700
     25 H7        -20.3305    19.2749   -20.9804 H          1  LIG1   0.1500
     26 H8        -17.9326    17.7847   -19.8755 H          1  LIG1   0.1300
     27 H9        -18.6075    18.7509   -18.5414 H          1  LIG1   0.1300
     28 H10       -16.2397    16.9350   -18.4035 H          1  LIG1   0.1300
     29 H11       -16.9146    17.9011   -17.0697 H          1  LIG1   0.1300
     30 H12       -17.3150    15.8273   -15.7704 H          1  LIG1   0.0900
     31 H13       -16.6401    14.8612   -17.1042 H          1  LIG1   0.0900
     32 H14       -14.4764    16.0499   -16.8705 H          1  LIG1   0.0900
     33 H15       -15.1514    17.0161   -15.5365 H          1  LIG1   0.0900
     34 H16       -16.0593    13.4965   -16.0562 H          1  LIG1   0.1300
     35 H17       -15.4911    11.7005   -14.4705 H          1  LIG1   0.1400
     36 H18       -13.9571    12.1506   -12.5982 H          1  LIG1   0.1400
     37 H19       -13.5529    16.1930   -13.9033 H          1  LIG1   0.1300
     38 H20       -20.6415    15.7479   -18.5733 H          1  LIG1   0.1700
@<TRIPOS>BOND
     1    1    2 1
     2    1   21 1
     3    1   22 1
     4    1   23 1
     5    2   20 1
     6    2    3 1
     7    3    4 2
     8    3   24 1
     9    4    5 1
    10    4   25 1
    11    5    6 1
    12    5   20 2
    13    6    7 1
    14    6   26 1
    15    6   27 1
    16    7    8 1
    17    7    9 1
    18    7   10 1
    19   10   11 1
    20   10   28 1
    21   10   29 1
    22   11   12 1
    23   11   30 1
    24   11   31 1
    25   12   13 1
    26   12   32 1
    27   12   33 1
    28   13   19 ar
    29   13   14 ar
    30   14   15 ar
    31   14   34 1
    32   15   16 ar
    33   15   35 1
    34   16   17 ar
    35   16   36 1
    36   17   18 1
    37   17   19 ar
    38   19   37 1
    39   20   38 1
##########                 Name:     ZINC000363565214
##########          Protonation:                 none
##########               SMILES:   CN(C(=O)CCC1=NC(C2=CC=C(F)C=C2)=NO1)[C@H]1CCC[N@@H+](C)C1
##########            Long Name:   NO_LONG_NAME
##########          FlexRecCode: 1
##########               Number:                  131
##########   Ligand Source File: /nfs/db/export/3D/EE/ADMO/EEADMO.xbdy.db2.gz
##########                 Rank:                    1
##########               Setnum:                  156
##########             Matchnum:                    1
##########                Cloud:                    1
##########        Electrostatic:           -33.796162
##########                 Gist:             0.000000
##########        Van der Waals:           -34.876965
##########  Ligand Polar Desolv:            15.211334
########## Ligand Apolar Desolv:            -4.537016
##########      Internal Energy:             0.000000
##########      Receptor Energy:             0.000000
########## Receptor Desolvation:             0.000000
########## Receptor Hydrophobic:             0.000000
##########         Total Energy:           -57.998810
##########        Ligand Charge:             1.000000
##########            Arbitrary:    +999.9990
##########        Ligand Energy:             0.000000

@<TRIPOS>MOLECULE
 ZINC000363565214      none
   49    51     0     0     0



@<TRIPOS>ATOM
      1 C1        -17.4780    17.5149   -22.4151 C.3        1  LIG1   0.0600
      2 N1        -16.9145    18.0457   -21.1712 N.am       1  LIG1  -0.6100
      3 C2        -16.3706    19.2787   -21.1502 C.2        1  LIG1   0.5300
      4 O1        -15.9040    19.7182   -20.1206 O.2        1  LIG1  -0.5200
      5 C3        -16.3421    20.1113   -22.4059 C.3        1  LIG1  -0.1400
      6 C4        -17.1163    21.4105   -22.1740 C.3        1  LIG1  -0.0100
      7 C5        -18.5446    21.0874   -21.8177 C.2        1  LIG1   0.1800
      8 N2        -19.0679    19.8917   -21.7096 N.2        1  LIG1  -0.4700
      9 C6        -20.3632    20.0909   -21.3762 C.2        1  LIG1   0.2200
     10 C7        -21.3833    19.0400   -21.1384 C.ar       1  LIG1  -0.0400
     11 C8        -20.9881    17.7388   -20.8341 C.ar       1  LIG1  -0.0400
     12 C9        -21.9398    16.7648   -20.6132 C.ar       1  LIG1  -0.1600
     13 C10       -23.2870    17.0787   -20.6939 C.ar       1  LIG1   0.1300
     14 F1        -24.2158    16.1218   -20.4768 F          1  LIG1  -0.1300
     15 C11       -23.6843    18.3713   -20.9961 C.ar       1  LIG1  -0.1500
     16 C12       -22.7392    19.3527   -21.2128 C.ar       1  LIG1  -0.0500
     17 N3        -20.5484    21.3835   -21.3024 N.2        1  LIG1  -0.3700
     18 O2        -19.5137    21.9674   -21.5470 O.3        1  LIG1   0.0900
     19 C13       -16.9422    17.2364   -19.9504 C.3        1  LIG1   0.1200
     20 H1        -17.4167    16.2777   -20.1600 H          1  LIG1   0.1200
     21 C14       -15.5107    17.0018   -19.4597 C.3        1  LIG1  -0.1500
     22 C15       -15.5543    16.2225   -18.1422 C.3        1  LIG1  -0.1400
     23 C16       -16.3963    16.9964   -17.1257 C.3        1  LIG1  -0.0100
     24 N4        -17.7600    17.1650   -17.6418 N.4        1  LIG1  -0.3800
     25 H2        -18.1556    16.2594   -17.8459 H          1  LIG1   0.4300
     26 C17       -18.5843    17.8411   -16.6311 C.3        1  LIG1  -0.0500
     27 C18       -17.7336    17.9723   -18.8673 C.3        1  LIG1  -0.0200
     28 H3        -17.8685    16.5127   -22.2384 H          1  LIG1   0.0700
     29 H4        -18.2848    18.1645   -22.7546 H          1  LIG1   0.0800
     30 H5        -16.7002    17.4728   -23.1774 H          1  LIG1   0.0900
     31 H6        -15.3092    20.3451   -22.6636 H          1  LIG1   0.1100
     32 H7        -16.8031    19.5544   -23.2216 H          1  LIG1   0.1100
     33 H8        -16.6555    21.9674   -21.3583 H          1  LIG1   0.1200
     34 H9        -17.0958    22.0127   -23.0823 H          1  LIG1   0.1100
     35 H10       -19.9383    17.4930   -20.7718 H          1  LIG1   0.1500
     36 H11       -21.6344    15.7559   -20.3774 H          1  LIG1   0.1500
     37 H12       -24.7354    18.6117   -21.0583 H          1  LIG1   0.1500
     38 H13       -23.0498    20.3600   -21.4483 H          1  LIG1   0.1400
     39 H14       -14.9593    16.4281   -20.2046 H          1  LIG1   0.1000
     40 H15       -15.0184    17.9612   -19.2995 H          1  LIG1   0.0900
     41 H16       -16.0003    15.2427   -18.3135 H          1  LIG1   0.0900
     42 H17       -14.5416    16.1000   -17.7579 H          1  LIG1   0.1200
     43 H18       -16.4294    16.4445   -16.1864 H          1  LIG1   0.1400
     44 H19       -15.9494    17.9759   -16.9549 H          1  LIG1   0.1300
     45 H20       -19.5975    17.9669   -17.0134 H          1  LIG1   0.1200
     46 H21       -18.6110    17.2397   -15.7224 H          1  LIG1   0.1200
     47 H22       -18.1564    18.8184   -16.4077 H          1  LIG1   0.1300
     48 H23       -17.2584    18.9311   -18.6601 H          1  LIG1   0.1300
     49 H24       -18.7537    18.1407   -19.2129 H          1  LIG1   0.1300
@<TRIPOS>BOND
     1    1    2 1
     2    1   28 1
     3    1   29 1
     4    1   30 1
     5    2    3 am
     6    2   19 1
     7    3    4 2
     8    3    5 1
     9    5    6 1
    10    5   31 1
    11    5   32 1
    12    6    7 1
    13    6   33 1
    14    6   34 1
    15    7   18 1
    16    7    8 2
    17    8    9 1
    18    9   10 1
    19    9   17 2
    20   10   16 ar
    21   10   11 ar
    22   11   12 ar
    23   11   35 1
    24   12   13 ar
    25   12   36 1
    26   13   14 1
    27   13   15 ar
    28   15   16 ar
    29   15   37 1
    30   16   38 1
    31   17   18 1
    32   19   20 1
    33   19   27 1
    34   19   21 1
    35   21   22 1
    36   21   39 1
    37   21   40 1
    38   22   23 1
    39   22   41 1
    40   22   42 1
    41   23   24 1
    42   23   43 1
    43   23   44 1
    44   24   25 1
    45   24   26 1
    46   24   27 1
    47   26   45 1
    48   26   46 1
    49   26   47 1
    50   27   48 1
    51   27   49 1
##########                 Name:     ZINC000447942180
##########          Protonation:                 none
##########               SMILES:   FC1=CC=CC=C1CC[NH2+]CC1=CC=NN1C1=CC=CC=C1
##########            Long Name:   NO_LONG_NAME
##########          FlexRecCode: 1
##########               Number:                 9982
##########   Ligand Source File: /nfs/db/export/3D/CG/ADRO/CGADRO.xbje.db2.gz
##########                 Rank:                    1
##########               Setnum:                  114
##########             Matchnum:                    1
##########                Cloud:                    1
##########        Electrostatic:           -39.978855
##########                 Gist:             0.000000
##########        Van der Waals:           -30.737795
##########  Ligand Polar Desolv:            18.768148
########## Ligand Apolar Desolv:            -6.053871
##########      Internal Energy:             0.000000
##########      Receptor Energy:             0.000000
########## Receptor Desolvation:             0.000000
########## Receptor Hydrophobic:             0.000000
##########         Total Energy:           -58.002373
##########        Ligand Charge:             1.000000
##########            Arbitrary:    +999.9990
##########        Ligand Energy:             0.000000

@<TRIPOS>MOLECULE
 ZINC000447942180      none
   41    43     0     0     0



@<TRIPOS>ATOM
      1 F1        -14.3616    15.5943   -13.6968 F          1  LIG1  -0.1400
      2 C1        -14.7319    14.2961   -13.6463 C.ar       1  LIG1   0.1100
      3 C2        -13.9849    13.3906   -12.9124 C.ar       1  LIG1  -0.1500
      4 C3        -14.3646    12.0626   -12.8614 C.ar       1  LIG1  -0.0700
      5 C4        -15.4899    11.6384   -13.5429 C.ar       1  LIG1  -0.1200
      6 C5        -16.2369    12.5418   -14.2762 C.ar       1  LIG1  -0.0800
      7 C6        -15.8624    13.8710   -14.3239 C.ar       1  LIG1  -0.1400
      8 C7        -16.6768    14.8554   -15.1232 C.3        1  LIG1  -0.1000
      9 C8        -16.1487    14.9076   -16.5583 C.3        1  LIG1  -0.0100
     10 N1        -16.9426    15.8672   -17.3375 N.4        1  LIG1  -0.5100
     11 H1        -17.9088    15.5766   -17.3450 H          1  LIG1   0.4300
     12 H2        -16.8697    16.7823   -16.9189 H          1  LIG1   0.4300
     13 C9        -16.4355    15.9171   -18.7153 C.3        1  LIG1   0.0700
     14 C10       -17.2498    16.9015   -19.5147 C.2        1  LIG1  -0.0100
     15 C11       -18.3736    16.6244   -20.2159 C.2        1  LIG1  -0.2000
     16 C12       -18.8152    17.8121   -20.8091 C.2        1  LIG1   0.0500
     17 N2        -17.9865    18.7691   -20.4762 N.2        1  LIG1  -0.2400
     18 N3        -16.9922    18.2215   -19.6554 N.pl3      1  LIG1  -0.3100
     19 C13       -15.9162    18.9173   -19.0869 C.ar       1  LIG1   0.1100
     20 C14       -15.0036    19.5733   -19.9020 C.ar       1  LIG1  -0.1400
     21 C15       -13.9446    20.2582   -19.3388 C.ar       1  LIG1  -0.0900
     22 C16       -13.7928    20.2909   -17.9648 C.ar       1  LIG1  -0.1000
     23 C17       -14.7001    19.6385   -17.1504 C.ar       1  LIG1  -0.0900
     24 C18       -15.7641    18.9562   -17.7075 C.ar       1  LIG1  -0.1000
     25 H3        -13.1053    13.7218   -12.3802 H          1  LIG1   0.1400
     26 H4        -13.7817    11.3560   -12.2893 H          1  LIG1   0.1400
     27 H5        -15.7857    10.6005   -13.5028 H          1  LIG1   0.1400
     28 H6        -17.1159    12.2093   -14.8083 H          1  LIG1   0.1400
     29 H7        -17.7205    14.5415   -15.1313 H          1  LIG1   0.1000
     30 H8        -16.5982    15.8440   -14.6709 H          1  LIG1   0.1000
     31 H9        -15.1048    15.2215   -16.5502 H          1  LIG1   0.1400
     32 H10       -16.2274    13.9189   -17.0106 H          1  LIG1   0.1300
     33 H11       -15.3917    16.2309   -18.7072 H          1  LIG1   0.1600
     34 H12       -16.5142    14.9285   -19.1676 H          1  LIG1   0.1400
     35 H13       -18.8458    15.6569   -20.3027 H          1  LIG1   0.1700
     36 H14       -19.6892    17.9207   -21.4341 H          1  LIG1   0.2000
     37 H15       -15.1214    19.5478   -20.9752 H          1  LIG1   0.1300
     38 H16       -13.2341    20.7684   -19.9724 H          1  LIG1   0.1400
     39 H17       -12.9637    20.8268   -17.5268 H          1  LIG1   0.1400
     40 H18       -14.5788    19.6655   -16.0776 H          1  LIG1   0.1400
     41 H19       -16.4724    18.4469   -17.0709 H          1  LIG1   0.1400
@<TRIPOS>BOND
     1    1    2 1
     2    2    7 ar
     3    2    3 ar
     4    3    4 ar
     5    3   25 1
     6    4    5 ar
     7    4   26 1
     8    5    6 ar
     9    5   27 1
    10    6    7 ar
    11    6   28 1
    12    7    8 1
    13    8    9 1
    14    8   29 1
    15    8   30 1
    16    9   10 1
    17    9   31 1
    18    9   32 1
    19   10   11 1
    20   10   12 1
    21   10   13 1
    22   13   14 1
    23   13   33 1
    24   13   34 1
    25   14   18 1
    26   14   15 2
    27   15   16 1
    28   15   35 1
    29   16   17 2
    30   16   36 1
    31   17   18 1
    32   18   19 1
    33   19   24 ar
    34   19   20 ar
    35   20   21 ar
    36   20   37 1
    37   21   22 ar
    38   21   38 1
    39   22   23 ar
    40   22   39 1
    41   23   24 ar
    42   23   40 1
    43   24   41 1
##########                 Name:     ZINC000119410297
##########          Protonation:                 none
##########               SMILES:   N#CC1=CC=C(OC[C@H](O)C[N@@H+](C[C@@H]2CCCO2)[C@@H]2CCSC2)C=C1
##########            Long Name:   NO_LONG_NAME
##########          FlexRecCode: 1
##########               Number:                 5175
##########   Ligand Source File: /nfs/db/export/3D/FE/EDMO/FEEDMO.xaa.db2.gz
##########                 Rank:                    1
##########               Setnum:                   28
##########             Matchnum:                    1
##########                Cloud:                    1
##########        Electrostatic:           -35.322876
##########                 Gist:             0.000000
##########        Van der Waals:           -34.896481
##########  Ligand Polar Desolv:            16.420052
########## Ligand Apolar Desolv:            -4.194917
##########      Internal Energy:             0.000000
##########      Receptor Energy:             0.000000
########## Receptor Desolvation:             0.000000
########## Receptor Hydrophobic:             0.000000
##########         Total Energy:           -57.994225
##########        Ligand Charge:             1.000000
##########            Arbitrary:    +999.9990
##########        Ligand Energy:             0.000000

@<TRIPOS>MOLECULE
 ZINC000119410297      none
   52    54     0     0     0



@<TRIPOS>ATOM
      1 N1        -15.0795    10.1727   -12.2670 N.1        1  LIG1  -0.4000
      2 C1        -15.1279    11.1148   -12.9000 C.1        1  LIG1   0.2400
      3 C2        -15.1888    12.3022   -13.6981 C.ar       1  LIG1  -0.0500
      4 C3        -16.0130    12.3472   -14.8258 C.ar       1  LIG1  -0.0300
      5 C4        -16.0690    13.4915   -15.5902 C.ar       1  LIG1  -0.1400
      6 C5        -15.3071    14.6002   -15.2419 C.ar       1  LIG1   0.1500
      7 O1        -15.3649    15.7260   -15.9983 O.3        1  LIG1  -0.3000
      8 C6        -16.5960    15.9917   -16.6733 C.3        1  LIG1   0.0300
      9 C7        -16.7798    17.5032   -16.8229 C.3        1  LIG1   0.0800
     10 H1        -15.9523    17.9145   -17.4010 H          1  LIG1   0.1300
     11 O2        -16.8052    18.1103   -15.5295 O.3        1  LIG1  -0.5300
     12 C8        -18.0980    17.7878   -17.5457 C.3        1  LIG1  -0.0400
     13 N2        -18.0719    17.1638   -18.8753 N.4        1  LIG1  -0.3800
     14 H2        -17.9508    16.1670   -18.7767 H          1  LIG1   0.4300
     15 C9        -19.3376    17.4369   -19.5691 C.3        1  LIG1  -0.0300
     16 C10       -20.4139    16.4734   -19.0650 C.3        1  LIG1   0.0500
     17 H3        -19.9862    15.4799   -18.9289 H          1  LIG1   0.1100
     18 C11       -21.5758    16.4089   -20.0795 C.3        1  LIG1  -0.1500
     19 C12       -22.8200    16.3477   -19.1520 C.3        1  LIG1  -0.1600
     20 C13       -22.3492    17.2317   -17.9698 C.3        1  LIG1   0.0500
     21 O3        -20.9470    16.9472   -17.8230 O.3        1  LIG1  -0.3800
     22 C14       -16.9568    17.7181   -19.6545 C.3        1  LIG1   0.0300
     23 H4        -16.0237    17.5100   -19.1311 H          1  LIG1   0.1500
     24 C15       -17.1351    19.2330   -19.7654 C.3        1  LIG1  -0.1600
     25 C16       -16.4900    19.7210   -21.0894 C.3        1  LIG1  -0.0700
     26 S1        -17.0245    18.3944   -22.2469 S.3        1  LIG1  -0.2500
     27 C17       -16.9202    17.0309   -21.0289 C.3        1  LIG1  -0.0900
     28 C18       -14.4866    14.5600   -14.1211 C.ar       1  LIG1  -0.2100
     29 C19       -14.4286    13.4216   -13.3480 C.ar       1  LIG1  -0.0300
     30 H5        -16.6049    11.4857   -15.0977 H          1  LIG1   0.1500
     31 H6        -16.7057    13.5271   -16.4619 H          1  LIG1   0.1500
     32 H7        -16.5767    15.5286   -17.6599 H          1  LIG1   0.0800
     33 H8        -17.4235    15.5806   -16.0950 H          1  LIG1   0.0800
     34 H9        -17.5180    17.7912   -14.9592 H          1  LIG1   0.3900
     35 H10       -18.9255    17.3765   -16.9675 H          1  LIG1   0.1500
     36 H11       -18.2288    18.8647   -17.6521 H          1  LIG1   0.1400
     37 H12       -19.6468    18.4631   -19.3706 H          1  LIG1   0.1400
     38 H13       -19.2008    17.2998   -20.6419 H          1  LIG1   0.1500
     39 H14       -21.5986    17.3042   -20.7007 H          1  LIG1   0.0900
     40 H15       -21.5053    15.5111   -20.6936 H          1  LIG1   0.1000
     41 H16       -23.6950    16.7774   -19.6398 H          1  LIG1   0.1000
     42 H17       -23.0165    15.3266   -18.8252 H          1  LIG1   0.0900
     43 H18       -22.4998    18.2860   -18.2021 H          1  LIG1   0.0700
     44 H19       -22.8861    16.9637   -17.0597 H          1  LIG1   0.1000
     45 H20       -18.1974    19.4772   -19.7645 H          1  LIG1   0.1000
     46 H21       -16.6497    19.7212   -18.9203 H          1  LIG1   0.1100
     47 H22       -16.8915    20.6891   -21.3887 H          1  LIG1   0.1300
     48 H23       -15.4037    19.7567   -21.0073 H          1  LIG1   0.1100
     49 H24       -15.9854    16.4840   -21.1515 H          1  LIG1   0.1500
     50 H25       -17.7709    16.3584   -21.1395 H          1  LIG1   0.1200
     51 H26       -13.8964    15.4240   -13.8536 H          1  LIG1   0.1300
     52 H27       -13.7910    13.3912   -12.4769 H          1  LIG1   0.1400
@<TRIPOS>BOND
     1    1    2 3
     2    2    3 1
     3    3   29 ar
     4    3    4 ar
     5    4    5 ar
     6    4   30 1
     7    5    6 ar
     8    5   31 1
     9    6    7 1
    10    6   28 ar
    11    7    8 1
    12    8    9 1
    13    8   32 1
    14    8   33 1
    15    9   10 1
    16    9   11 1
    17    9   12 1
    18   11   34 1
    19   12   13 1
    20   12   35 1
    21   12   36 1
    22   13   14 1
    23   13   15 1
    24   13   22 1
    25   15   16 1
    26   15   37 1
    27   15   38 1
    28   16   17 1
    29   16   21 1
    30   16   18 1
    31   18   19 1
    32   18   39 1
    33   18   40 1
    34   19   20 1
    35   19   41 1
    36   19   42 1
    37   20   21 1
    38   20   43 1
    39   20   44 1
    40   22   23 1
    41   22   27 1
    42   22   24 1
    43   24   25 1
    44   24   45 1
    45   24   46 1
    46   25   26 1
    47   25   47 1
    48   25   48 1
    49   26   27 1
    50   27   49 1
    51   27   50 1
    52   28   29 ar
    53   28   51 1
    54   29   52 1
##########                 Name:     ZINC000237938360
##########          Protonation:                 none
##########               SMILES:   CC1=CC=CC(CC[NH2+]CC2=NN(C3=CC=CC=C3)C=C2)=C1
##########            Long Name:   NO_LONG_NAME
##########          FlexRecCode: 1
##########               Number:                10676
##########   Ligand Source File: /nfs/db/export/3D/CH/ADRO/CHADRO.xij.db2.gz
##########                 Rank:                    1
##########               Setnum:                   35
##########             Matchnum:                    1
##########                Cloud:                    1
##########        Electrostatic:           -32.367912
##########                 Gist:             0.000000
##########        Van der Waals:           -35.085636
##########  Ligand Polar Desolv:            16.635904
########## Ligand Apolar Desolv:            -7.187181
##########      Internal Energy:             0.000000
##########      Receptor Energy:             0.000000
########## Receptor Desolvation:             0.000000
########## Receptor Hydrophobic:             0.000000
##########         Total Energy:           -58.004829
##########        Ligand Charge:             1.000000
##########            Arbitrary:    +999.9990
##########        Ligand Energy:             0.000000

@<TRIPOS>MOLECULE
 ZINC000237938360      none
   44    46     0     0     0



@<TRIPOS>ATOM
      1 C1        -14.7135    11.5029   -13.0634 C.3        1  LIG1  -0.1200
      2 C2        -14.5001    12.9169   -13.5388 C.ar       1  LIG1  -0.0800
      3 C3        -13.3184    13.5725   -13.2491 C.ar       1  LIG1  -0.1100
      4 C4        -13.1226    14.8698   -13.6852 C.ar       1  LIG1  -0.1100
      5 C5        -14.1085    15.5109   -14.4114 C.ar       1  LIG1  -0.1200
      6 C6        -15.2902    14.8549   -14.7021 C.ar       1  LIG1  -0.1000
      7 C7        -16.3652    15.5541   -15.4935 C.3        1  LIG1  -0.1000
      8 C8        -16.1491    15.2962   -16.9860 C.3        1  LIG1  -0.0100
      9 N1        -17.1972    15.9779   -17.7575 N.4        1  LIG1  -0.5100
     10 H1        -18.1011    15.6240   -17.4826 H          1  LIG1   0.4300
     11 H2        -17.1555    16.9699   -17.5779 H          1  LIG1   0.4300
     12 C9        -16.9895    15.7304   -19.1906 C.3        1  LIG1   0.0900
     13 C10       -18.0646    16.4296   -19.9819 C.2        1  LIG1   0.0000
     14 N2        -19.3429    16.4347   -19.7015 N.2        1  LIG1  -0.2600
     15 N3        -20.0022    17.1947   -20.6763 N.pl3      1  LIG1  -0.2900
     16 C11       -21.3803    17.4448   -20.7350 C.ar       1  LIG1   0.1300
     17 C12       -21.8500    18.6232   -21.2991 C.ar       1  LIG1  -0.1300
     18 C13       -23.2083    18.8669   -21.3553 C.ar       1  LIG1  -0.0900
     19 C14       -24.1002    17.9387   -20.8500 C.ar       1  LIG1  -0.1100
     20 C15       -23.6354    16.7643   -20.2872 C.ar       1  LIG1  -0.1000
     21 C16       -22.2785    16.5121   -20.2340 C.ar       1  LIG1  -0.1100
     22 C17       -19.0737    17.6445   -21.5505 C.2        1  LIG1   0.0700
     23 C18       -17.8671    17.1902   -21.1397 C.2        1  LIG1  -0.2500
     24 C19       -15.4842    13.5564   -14.2697 C.ar       1  LIG1  -0.1100
     25 H3        -13.8364    11.1697   -12.5087 H          1  LIG1   0.0800
     26 H4        -15.5890    11.4657   -12.4152 H          1  LIG1   0.0700
     27 H5        -14.8695    10.8503   -13.9225 H          1  LIG1   0.0700
     28 H6        -12.5481    13.0715   -12.6817 H          1  LIG1   0.1300
     29 H7        -12.1995    15.3823   -13.4581 H          1  LIG1   0.1300
     30 H8        -13.9558    16.5245   -14.7515 H          1  LIG1   0.1200
     31 H9        -17.3419    15.1717   -15.1964 H          1  LIG1   0.1000
     32 H10       -16.3203    16.6257   -15.2995 H          1  LIG1   0.1000
     33 H11       -15.1725    15.6784   -17.2831 H          1  LIG1   0.1400
     34 H12       -16.1942    14.2245   -17.1800 H          1  LIG1   0.1400
     35 H13       -16.0129    16.1128   -19.4875 H          1  LIG1   0.1500
     36 H14       -17.0345    14.6588   -19.3844 H          1  LIG1   0.1500
     37 H15       -21.1539    19.3489   -21.6933 H          1  LIG1   0.1300
     38 H16       -23.5743    19.7834   -21.7940 H          1  LIG1   0.1400
     39 H17       -25.1619    18.1316   -20.8949 H          1  LIG1   0.1400
     40 H18       -24.3343    16.0416   -19.8927 H          1  LIG1   0.1400
     41 H19       -21.9160    15.5946   -19.7943 H          1  LIG1   0.1400
     42 H20       -19.2610    18.2600   -22.4180 H          1  LIG1   0.1900
     43 H21       -16.9198    17.3759   -21.6240 H          1  LIG1   0.1700
     44 H22       -16.4073    13.0439   -14.4968 H          1  LIG1   0.1200
@<TRIPOS>BOND
     1    1    2 1
     2    1   25 1
     3    1   26 1
     4    1   27 1
     5    2   24 ar
     6    2    3 ar
     7    3    4 ar
     8    3   28 1
     9    4    5 ar
    10    4   29 1
    11    5    6 ar
    12    5   30 1
    13    6    7 1
    14    6   24 ar
    15    7    8 1
    16    7   31 1
    17    7   32 1
    18    8    9 1
    19    8   33 1
    20    8   34 1
    21    9   10 1
    22    9   11 1
    23    9   12 1
    24   12   13 1
    25   12   35 1
    26   12   36 1
    27   13   23 1
    28   13   14 2
    29   14   15 1
    30   15   16 1
    31   15   22 1
    32   16   21 ar
    33   16   17 ar
    34   17   18 ar
    35   17   37 1
    36   18   19 ar
    37   18   38 1
    38   19   20 ar
    39   19   39 1
    40   20   21 ar
    41   20   40 1
    42   21   41 1
    43   22   23 2
    44   22   42 1
    45   23   43 1
    46   24   44 1
##########                 Name:     ZINC000655940516
##########          Protonation:                 none
##########               SMILES:   CN1C=C([C@@H]2C[N@@H+](CCC(C)(C)C3CC3)C[C@H]2N)C=N1
##########            Long Name:   NO_LONG_NAME
##########          FlexRecCode: 1
##########               Number:                 6788
##########   Ligand Source File: /nfs/db/export/3D/CD/ADMO/CDADMO.xbkh.db2.gz
##########                 Rank:                    1
##########               Setnum:                   14
##########             Matchnum:                    1
##########                Cloud:                    1
##########        Electrostatic:           -44.673843
##########                 Gist:             0.000000
##########        Van der Waals:           -25.461504
##########  Ligand Polar Desolv:            15.859111
########## Ligand Apolar Desolv:            -3.721678
##########      Internal Energy:             0.000000
##########      Receptor Energy:             0.000000
########## Receptor Desolvation:             0.000000
########## Receptor Hydrophobic:             0.000000
##########         Total Energy:           -57.997913
##########        Ligand Charge:             1.000000
##########            Arbitrary:    +999.9990
##########        Ligand Energy:             0.000000

@<TRIPOS>MOLECULE
 ZINC000655940516      none
   49    51     0     0     0



@<TRIPOS>ATOM
      1 C1        -15.1288    12.7277   -14.6021 C.3        1  LIG1   0.0900
      2 N1        -15.0903    14.0870   -15.1475 N.pl3      1  LIG1  -0.3600
      3 C2        -15.9247    14.5922   -16.0800 C.2        1  LIG1   0.0900
      4 C3        -15.5580    15.8742   -16.3104 C.2        1  LIG1  -0.2600
      5 C4        -16.2150    16.8240   -17.2785 C.3        1  LIG1  -0.0100
      6 H1        -15.7125    17.7911   -17.2583 H          1  LIG1   0.1200
      7 C5        -17.7070    16.9897   -16.9355 C.3        1  LIG1   0.0000
      8 N2        -18.4769    16.4913   -18.0958 N.4        1  LIG1  -0.3900
      9 H2        -18.7200    15.5212   -17.9613 H          1  LIG1   0.4300
     10 C6        -19.6909    17.2971   -18.2822 C.3        1  LIG1  -0.0100
     11 C7        -20.7012    16.5112   -19.1202 C.3        1  LIG1  -0.1300
     12 C8        -21.9655    17.3506   -19.3144 C.3        1  LIG1  -0.0200
     13 C9        -22.9757    16.5643   -20.1524 C.3        1  LIG1  -0.1600
     14 C10       -22.5770    17.6745   -17.9500 C.3        1  LIG1  -0.1500
     15 C11       -21.6081    18.6519   -20.0352 C.3        1  LIG1  -0.1500
     16 C12       -20.7997    18.5434   -21.3297 C.3        1  LIG1  -0.1800
     17 C13       -22.2815    18.9211   -21.3824 C.3        1  LIG1  -0.1700
     18 C14       -17.5789    16.6362   -19.2700 C.3        1  LIG1  -0.0500
     19 C15       -16.1898    16.2359   -18.7079 C.3        1  LIG1   0.0900
     20 H3        -16.0847    15.1513   -18.6759 H          1  LIG1   0.1200
     21 N3        -15.1132    16.8372   -19.5060 N.3        1  LIG1  -0.8200
     22 C16       -14.4619    16.1622   -15.4907 C.2        1  LIG1   0.0400
     23 N4        -14.1844    15.0935   -14.7887 N.2        1  LIG1  -0.2800
     24 H4        -15.9405    12.1712   -15.0707 H          1  LIG1   0.0800
     25 H5        -14.1814    12.2280   -14.8045 H          1  LIG1   0.0900
     26 H6        -15.2931    12.7727   -13.5255 H          1  LIG1   0.1000
     27 H7        -16.7391    14.0673   -16.5571 H          1  LIG1   0.1800
     28 H8        -17.9513    16.4047   -16.0488 H          1  LIG1   0.1400
     29 H9        -17.9340    18.0419   -16.7635 H          1  LIG1   0.1300
     30 H10       -20.1265    17.5280   -17.3101 H          1  LIG1   0.1300
     31 H11       -19.4362    18.2244   -18.7957 H          1  LIG1   0.1300
     32 H12       -20.2655    16.2804   -20.0924 H          1  LIG1   0.0900
     33 H13       -20.9559    15.5840   -18.6068 H          1  LIG1   0.0900
     34 H14       -23.8765    17.1622   -20.2909 H          1  LIG1   0.0600
     35 H15       -22.5399    16.3336   -21.1245 H          1  LIG1   0.0700
     36 H16       -23.2303    15.6371   -19.6392 H          1  LIG1   0.0700
     37 H17       -23.4779    18.2725   -18.0883 H          1  LIG1   0.0600
     38 H18       -22.8318    16.7472   -17.4366 H          1  LIG1   0.0700
     39 H19       -21.8574    18.2344   -17.3529 H          1  LIG1   0.0500
     40 H20       -21.4130    19.5084   -19.3899 H          1  LIG1   0.1100
     41 H21       -20.0725    19.3287   -21.5363 H          1  LIG1   0.1000
     42 H22       -20.5226    17.5451   -21.6679 H          1  LIG1   0.1000
     43 H23       -22.9791    18.1713   -21.7552 H          1  LIG1   0.1000
     44 H24       -22.5289    19.9549   -21.6236 H          1  LIG1   0.1000
     45 H25       -17.8798    15.9601   -20.0703 H          1  LIG1   0.1300
     46 H26       -17.5676    17.6682   -19.6207 H          1  LIG1   0.1300
     47 H27       -14.3510    17.1377   -18.9171 H          1  LIG1   0.3600
     48 H28       -14.7903    16.1985   -20.2172 H          1  LIG1   0.3500
     49 H29       -13.9381    17.1054   -15.4419 H          1  LIG1   0.1800
@<TRIPOS>BOND
     1    1    2 1
     2    1   24 1
     3    1   25 1
     4    1   26 1
     5    2   23 1
     6    2    3 1
     7    3    4 2
     8    3   27 1
     9    4    5 1
    10    4   22 1
    11    5    6 1
    12    5   19 1
    13    5    7 1
    14    7    8 1
    15    7   28 1
    16    7   29 1
    17    8    9 1
    18    8   10 1
    19    8   18 1
    20   10   11 1
    21   10   30 1
    22   10   31 1
    23   11   12 1
    24   11   32 1
    25   11   33 1
    26   12   13 1
    27   12   14 1
    28   12   15 1
    29   13   34 1
    30   13   35 1
    31   13   36 1
    32   14   37 1
    33   14   38 1
    34   14   39 1
    35   15   17 1
    36   15   16 1
    37   15   40 1
    38   16   17 1
    39   16   41 1
    40   16   42 1
    41   17   43 1
    42   17   44 1
    43   18   19 1
    44   18   45 1
    45   18   46 1
    46   19   20 1
    47   19   21 1
    48   21   47 1
    49   21   48 1
    50   22   23 2
    51   22   49 1
##########                 Name:     ZINC000428731910
##########          Protonation:                 none
##########               SMILES:   C[C@]12CC[N@@H+](C3C4=CC=CC=C4C4=CC=CC=C43)C[C@H]1C2(F)F
##########            Long Name:   NO_LONG_NAME
##########          FlexRecCode: 1
##########               Number:                 1888
##########   Ligand Source File: /nfs/db/export/3D/DJ/ADRO/DJADRO.xae.db2.gz
##########                 Rank:                    1
##########               Setnum:                    2
##########             Matchnum:                    1
##########                Cloud:                    1
##########        Electrostatic:           -35.085289
##########                 Gist:             0.000000
##########        Van der Waals:           -31.163263
##########  Ligand Polar Desolv:            14.955956
########## Ligand Apolar Desolv:            -6.708535
##########      Internal Energy:             0.000000
##########      Receptor Energy:             0.000000
########## Receptor Desolvation:             0.000000
########## Receptor Hydrophobic:             0.000000
##########         Total Energy:           -58.001129
##########        Ligand Charge:             1.000000
##########            Arbitrary:    +999.9990
##########        Ligand Energy:             0.000000

@<TRIPOS>MOLECULE
 ZINC000428731910      none
   43    47     0     0     0



@<TRIPOS>ATOM
      1 C1        -17.4223    16.4624   -15.0384 C.3        1  LIG1  -0.1300
      2 C2        -17.4497    16.9088   -16.5017 C.3        1  LIG1  -0.1100
      3 C3        -18.6926    17.6891   -16.9152 C.3        1  LIG1  -0.1100
      4 C4        -18.7748    17.7622   -18.4413 C.3        1  LIG1  -0.0300
      5 N1        -18.7288    16.3944   -18.9809 N.4        1  LIG1  -0.3700
      6 H1        -19.3124    15.7909   -18.4212 H          1  LIG1   0.4300
      7 C5        -19.2120    16.3969   -20.3682 C.3        1  LIG1   0.1400
      8 C6        -20.7172    16.5019   -20.3939 C.ar       1  LIG1  -0.1500
      9 C7        -21.7105    15.6886   -19.8918 C.ar       1  LIG1  -0.0800
     10 C8        -23.0401    16.0328   -20.0623 C.ar       1  LIG1  -0.1000
     11 C9        -23.3751    17.1932   -20.7361 C.ar       1  LIG1  -0.0800
     12 C10       -22.3874    18.0133   -21.2415 C.ar       1  LIG1  -0.0900
     13 C11       -21.0445    17.6723   -21.0736 C.ar       1  LIG1  -0.0300
     14 C12       -19.8008    18.3572   -21.5052 C.ar       1  LIG1  -0.0300
     15 C13       -19.6029    19.5473   -22.2071 C.ar       1  LIG1  -0.0900
     16 C14       -18.3222    19.9764   -22.4884 C.ar       1  LIG1  -0.0800
     17 C15       -17.2317    19.2316   -22.0777 C.ar       1  LIG1  -0.1000
     18 C16       -17.4205    18.0507   -21.3813 C.ar       1  LIG1  -0.0800
     19 C17       -18.6965    17.6143   -21.0957 C.ar       1  LIG1  -0.1600
     20 C18       -17.3442    15.9116   -18.9425 C.3        1  LIG1   0.0200
     21 C19       -16.8034    15.9697   -17.5143 C.3        1  LIG1  -0.1800
     22 H2        -16.3881    15.0373   -17.1319 H          1  LIG1   0.1700
     23 C20       -16.1116    17.2848   -17.1265 C.3        1  LIG1   0.2200
     24 F1        -16.1000    18.3134   -18.0747 F          1  LIG1  -0.1500
     25 F2        -14.9783    17.2029   -16.3102 F          1  LIG1  -0.1400
     26 H3        -17.9121    17.2145   -14.4200 H          1  LIG1   0.0800
     27 H4        -17.9468    15.5121   -14.9388 H          1  LIG1   0.0900
     28 H5        -16.3886    16.3426   -14.7145 H          1  LIG1   0.0800
     29 H6        -19.5801    17.1886   -16.5281 H          1  LIG1   0.1100
     30 H7        -18.6396    18.6982   -16.5065 H          1  LIG1   0.1300
     31 H8        -19.7094    18.2400   -18.7348 H          1  LIG1   0.1400
     32 H9        -17.9314    18.3356   -18.8260 H          1  LIG1   0.1500
     33 H10       -18.8893    15.4898   -20.8792 H          1  LIG1   0.1600
     34 H11       -21.4510    14.7820   -19.3653 H          1  LIG1   0.1300
     35 H12       -23.8172    15.3941   -19.6690 H          1  LIG1   0.1400
     36 H13       -24.4138    17.4582   -20.8675 H          1  LIG1   0.1400
     37 H14       -22.6534    18.9186   -21.7670 H          1  LIG1   0.1400
     38 H15       -20.4517    20.1316   -22.5302 H          1  LIG1   0.1400
     39 H16       -18.1708    20.8975   -23.0316 H          1  LIG1   0.1400
     40 H17       -16.2314    19.5719   -22.3012 H          1  LIG1   0.1400
     41 H18       -16.5675    17.4705   -21.0615 H          1  LIG1   0.1300
     42 H19       -17.3108    14.8824   -19.2995 H          1  LIG1   0.1400
     43 H20       -16.7263    16.5356   -19.5882 H          1  LIG1   0.1400
@<TRIPOS>BOND
     1    1    2 1
     2    1   26 1
     3    1   27 1
     4    1   28 1
     5    2   21 1
     6    2   23 1
     7    2    3 1
     8    3    4 1
     9    3   29 1
    10    3   30 1
    11    4    5 1
    12    4   31 1
    13    4   32 1
    14    5    6 1
    15    5    7 1
    16    5   20 1
    17    7   19 1
    18    7    8 1
    19    7   33 1
    20    8   13 ar
    21    8    9 ar
    22    9   10 ar
    23    9   34 1
    24   10   11 ar
    25   10   35 1
    26   11   12 ar
    27   11   36 1
    28   12   13 ar
    29   12   37 1
    30   13   14 1
    31   14   19 ar
    32   14   15 ar
    33   15   16 ar
    34   15   38 1
    35   16   17 ar
    36   16   39 1
    37   17   18 ar
    38   17   40 1
    39   18   19 ar
    40   18   41 1
    41   20   21 1
    42   20   42 1
    43   20   43 1
    44   21   22 1
    45   21   23 1
    46   23   24 1
    47   23   25 1
##########                 Name:     ZINC000639320180
##########          Protonation:                 none
##########               SMILES:   COC1=NSC(C[NH2+]C[C@H](CO)CC2CC2)=C1Br
##########            Long Name:   NO_LONG_NAME
##########          FlexRecCode: 1
##########               Number:                 1808
##########   Ligand Source File: /nfs/db/export/3D/EE/ADRO/EEADRO.xbtb.db2.gz
##########                 Rank:                    1
##########               Setnum:                  522
##########             Matchnum:                    1
##########                Cloud:                    1
##########        Electrostatic:           -46.525566
##########                 Gist:             0.000000
##########        Van der Waals:           -24.185934
##########  Ligand Polar Desolv:            14.395246
########## Ligand Apolar Desolv:            -1.678575
##########      Internal Energy:             0.000000
##########      Receptor Energy:             0.000000
########## Receptor Desolvation:             0.000000
########## Receptor Hydrophobic:             0.000000
##########         Total Energy:           -57.994831
##########        Ligand Charge:             1.000000
##########            Arbitrary:    +999.9990
##########        Ligand Energy:             0.000000

@<TRIPOS>MOLECULE
 ZINC000639320180      none
   38    39     0     0     0



@<TRIPOS>ATOM
      1 C1        -14.3336    11.0900   -12.8214 C.3        1  LIG1   0.0300
      2 O1        -14.1843    12.4636   -13.1865 O.3        1  LIG1  -0.2800
      3 C2        -14.9790    12.9258   -14.1881 C.2        1  LIG1   0.3300
      4 N1        -15.8431    12.1549   -14.7864 N.2        1  LIG1  -0.4900
      5 S1        -16.6257    13.0961   -15.9602 S.3        1  LIG1   0.4000
      6 C3        -15.7624    14.5456   -15.6242 C.2        1  LIG1  -0.2400
      7 C4        -15.9230    15.8805   -16.3051 C.3        1  LIG1   0.0800
      8 N2        -16.9598    15.7802   -17.3409 N.4        1  LIG1  -0.5000
      9 H1        -16.6893    15.0859   -18.0213 H          1  LIG1   0.4300
     10 H2        -17.8347    15.5119   -16.9162 H          1  LIG1   0.4300
     11 C5        -17.1162    17.0814   -18.0046 C.3        1  LIG1   0.0000
     12 C6        -18.1960    16.9770   -19.0834 C.3        1  LIG1  -0.1100
     13 H3        -18.1008    16.0229   -19.6018 H          1  LIG1   0.1100
     14 C7        -18.0279    18.1208   -20.0858 C.3        1  LIG1   0.0600
     15 O2        -16.7373    18.0355   -20.6935 O.3        1  LIG1  -0.6000
     16 C8        -19.5777    17.0682   -18.4328 C.3        1  LIG1  -0.0800
     17 C9        -20.6270    16.4816   -19.3792 C.3        1  LIG1  -0.1700
     18 C10       -22.0839    16.8959   -19.1627 C.3        1  LIG1  -0.1800
     19 C11       -21.3048    17.4380   -20.3626 C.3        1  LIG1  -0.1700
     20 C12       -14.9144    14.2387   -14.6184 C.2        1  LIG1  -0.1300
     21 Br1       -13.7239    15.5011   -13.8667 Br         1  LIG1   0.0300
     22 H4        -13.6426    10.8519   -12.0127 H          1  LIG1   0.0700
     23 H5        -15.3565    10.9114   -12.4897 H          1  LIG1   0.1200
     24 H6        -14.1156    10.4592   -13.6831 H          1  LIG1   0.0700
     25 H7        -16.2151    16.6304   -15.5700 H          1  LIG1   0.1600
     26 H8        -14.9777    16.1704   -16.7638 H          1  LIG1   0.1500
     27 H9        -17.4083    17.8314   -17.2696 H          1  LIG1   0.1400
     28 H10       -16.1709    17.3712   -18.4635 H          1  LIG1   0.1300
     29 H11       -18.7972    18.0464   -20.8543 H          1  LIG1   0.0800
     30 H12       -18.1230    19.0749   -19.5675 H          1  LIG1   0.0700
     31 H13       -16.5824    17.2103   -21.1733 H          1  LIG1   0.4100
     32 H14       -19.5770    16.5071   -17.4984 H          1  LIG1   0.0900
     33 H15       -19.8154    18.1124   -18.2292 H          1  LIG1   0.0800
     34 H16       -20.4382    15.4627   -19.7172 H          1  LIG1   0.1100
     35 H17       -22.8538    16.1493   -19.3580 H          1  LIG1   0.1000
     36 H18       -22.2948    17.5863   -18.3460 H          1  LIG1   0.1000
     37 H19       -21.0029    18.4850   -20.3354 H          1  LIG1   0.1000
     38 H20       -21.5619    17.0482   -21.3474 H          1  LIG1   0.1000
@<TRIPOS>BOND
     1    1    2 1
     2    1   22 1
     3    1   23 1
     4    1   24 1
     5    2    3 1
     6    3   20 1
     7    3    4 2
     8    4    5 1
     9    5    6 1
    10    6    7 1
    11    6   20 2
    12    7    8 1
    13    7   25 1
    14    7   26 1
    15    8    9 1
    16    8   10 1
    17    8   11 1
    18   11   12 1
    19   11   27 1
    20   11   28 1
    21   12   13 1
    22   12   14 1
    23   12   16 1
    24   14   15 1
    25   14   29 1
    26   14   30 1
    27   15   31 1
    28   16   17 1
    29   16   32 1
    30   16   33 1
    31   17   19 1
    32   17   18 1
    33   17   34 1
    34   18   19 1
    35   18   35 1
    36   18   36 1
    37   19   37 1
    38   19   38 1
    39   20   21 1
##########                 Name:     ZINC000180191350
##########          Protonation:                 none
##########               SMILES:   CC1=CC=CC(C2=NNC=C2C[N@@H+]2CC[C@@](C)(O)C2)=C1
##########            Long Name:   NO_LONG_NAME
##########          FlexRecCode: 1
##########               Number:                  683
##########   Ligand Source File: /nfs/db/export/3D/CE/ADRO/CEADRO.xawe.db2.gz
##########                 Rank:                    1
##########               Setnum:                   77
##########             Matchnum:                    1
##########                Cloud:                    1
##########        Electrostatic:           -43.485134
##########                 Gist:             0.000000
##########        Van der Waals:           -25.264511
##########  Ligand Polar Desolv:            12.954752
########## Ligand Apolar Desolv:            -2.206969
##########      Internal Energy:             0.000000
##########      Receptor Energy:             0.000000
########## Receptor Desolvation:             0.000000
########## Receptor Hydrophobic:             0.000000
##########         Total Energy:           -58.001865
##########        Ligand Charge:             1.000000
##########            Arbitrary:    +999.9990
##########        Ligand Energy:             0.000000

@<TRIPOS>MOLECULE
 ZINC000180191350      none
   42    44     0     0     0



@<TRIPOS>ATOM
      1 C1        -15.9807    18.2261   -24.1029 C.3        1  LIG1  -0.1200
      2 C2        -17.2030    18.8183   -23.4499 C.ar       1  LIG1  -0.0700
      3 C3        -17.5566    20.1300   -23.7085 C.ar       1  LIG1  -0.1000
      4 C4        -18.6772    20.6800   -23.1122 C.ar       1  LIG1  -0.1100
      5 C5        -19.4485    19.9215   -22.2555 C.ar       1  LIG1  -0.1200
      6 C6        -19.0970    18.5992   -21.9915 C.ar       1  LIG1  -0.0400
      7 C7        -19.9231    17.7784   -21.0715 C.2        1  LIG1   0.1400
      8 N1        -21.1949    17.4793   -21.2309 N.2        1  LIG1  -0.2600
      9 N2        -21.5958    16.6892   -20.1461 N.pl3      1  LIG1  -0.4500
     10 C8        -20.5316    16.5220   -19.3318 C.2        1  LIG1   0.1200
     11 C9        -19.4828    17.1767   -19.8764 C.2        1  LIG1  -0.3100
     12 C10       -18.0916    17.2562   -19.3029 C.3        1  LIG1   0.0900
     13 N3        -18.0356    16.4967   -18.0468 N.4        1  LIG1  -0.3900
     14 H1        -18.5655    15.6419   -18.1273 H          1  LIG1   0.4300
     15 C11       -18.5445    17.3193   -16.9191 C.3        1  LIG1   0.0000
     16 C12       -17.9301    16.6738   -15.6585 C.3        1  LIG1  -0.1800
     17 C13       -16.6682    15.9405   -16.1581 C.3        1  LIG1   0.1200
     18 C14       -15.4193    16.5129   -15.4846 C.3        1  LIG1  -0.1800
     19 O1        -16.7730    14.5392   -15.8984 O.3        1  LIG1  -0.5500
     20 C15       -16.6265    16.2018   -17.6802 C.3        1  LIG1   0.0100
     21 C16       -17.9705    18.0487   -22.5989 C.ar       1  LIG1  -0.0900
     22 H2        -15.5066    18.9770   -24.7350 H          1  LIG1   0.0800
     23 H3        -15.2788    17.9024   -23.3343 H          1  LIG1   0.0700
     24 H4        -16.2726    17.3703   -24.7119 H          1  LIG1   0.0700
     25 H5        -16.9557    20.7271   -24.3785 H          1  LIG1   0.1300
     26 H6        -18.9484    21.7051   -23.3172 H          1  LIG1   0.1300
     27 H7        -20.3228    20.3521   -21.7901 H          1  LIG1   0.1200
     28 H8        -22.4837    16.3253   -20.0043 H          1  LIG1   0.4500
     29 H9        -20.5199    15.9605   -18.4093 H          1  LIG1   0.1900
     30 H10       -17.3808    16.8351   -20.0140 H          1  LIG1   0.1300
     31 H11       -17.8375    18.2983   -19.1091 H          1  LIG1   0.1400
     32 H12       -18.2088    18.3514   -17.0197 H          1  LIG1   0.1300
     33 H13       -19.6327    17.2749   -16.8770 H          1  LIG1   0.1300
     34 H14       -17.6598    17.4415   -14.9335 H          1  LIG1   0.1200
     35 H15       -18.6302    15.9646   -15.2169 H          1  LIG1   0.1100
     36 H16       -14.5369    15.9855   -15.8472 H          1  LIG1   0.0800
     37 H17       -15.3321    17.5732   -15.7222 H          1  LIG1   0.0800
     38 H18       -15.4993    16.3879   -14.4049 H          1  LIG1   0.0800
     39 H19       -17.5287    14.1150   -16.3275 H          1  LIG1   0.4000
     40 H20       -16.2701    15.3173   -18.2081 H          1  LIG1   0.1400
     41 H21       -15.9909    17.0594   -17.9013 H          1  LIG1   0.1500
     42 H22       -17.6939    17.0243   -22.3980 H          1  LIG1   0.1300
@<TRIPOS>BOND
     1    1    2 1
     2    1   22 1
     3    1   23 1
     4    1   24 1
     5    2   21 ar
     6    2    3 ar
     7    3    4 ar
     8    3   25 1
     9    4    5 ar
    10    4   26 1
    11    5    6 ar
    12    5   27 1
    13    6    7 1
    14    6   21 ar
    15    7   11 1
    16    7    8 2
    17    8    9 1
    18    9   10 1
    19    9   28 1
    20   10   11 2
    21   10   29 1
    22   11   12 1
    23   12   13 1
    24   12   30 1
    25   12   31 1
    26   13   14 1
    27   13   20 1
    28   13   15 1
    29   15   16 1
    30   15   32 1
    31   15   33 1
    32   16   17 1
    33   16   34 1
    34   16   35 1
    35   17   18 1
    36   17   19 1
    37   17   20 1
    38   18   36 1
    39   18   37 1
    40   18   38 1
    41   19   39 1
    42   20   40 1
    43   20   41 1
    44   21   42 1
##########                 Name:     ZINC000280937772
##########          Protonation:                 none
##########               SMILES:   COC1=CC(NC(=O)C(=O)N2CC[C@@H]3CC[N@H+](C)C[C@@H]32)=C(C)C=C1C
##########            Long Name:   NO_LONG_NAME
##########          FlexRecCode: 1
##########               Number:                  145
##########   Ligand Source File: /nfs/db/export/3D/ED/ADRO/EDADRO.xdlm.db2.gz
##########                 Rank:                    1
##########               Setnum:                   35
##########             Matchnum:                    1
##########                Cloud:                    1
##########        Electrostatic:           -34.682911
##########                 Gist:             0.000000
##########        Van der Waals:           -35.488705
##########  Ligand Polar Desolv:            16.571976
########## Ligand Apolar Desolv:            -4.395537
##########      Internal Energy:             0.000000
##########      Receptor Energy:             0.000000
########## Receptor Desolvation:             0.000000
########## Receptor Hydrophobic:             0.000000
##########         Total Energy:           -57.995178
##########        Ligand Charge:             1.000000
##########            Arbitrary:    +999.9990
##########        Ligand Energy:             0.000000

@<TRIPOS>MOLECULE
 ZINC000280937772      none
   53    55     0     0     0



@<TRIPOS>ATOM
      1 C1        -16.8205    11.6066   -15.5726 C.3        1  LIG1   0.0300
      2 O1        -15.9252    11.3589   -14.4867 O.3        1  LIG1  -0.3100
      3 C2        -15.1708    12.4050   -14.0582 C.ar       1  LIG1   0.1400
      4 C3        -15.2944    13.6438   -14.6664 C.ar       1  LIG1  -0.2000
      5 C4        -14.5224    14.7106   -14.2259 C.ar       1  LIG1   0.1600
      6 N1        -14.6445    15.9616   -14.8361 N.am       1  LIG1  -0.6300
      7 C5        -15.8214    16.3363   -15.3755 C.2        1  LIG1   0.5100
      8 O2        -16.7753    15.5871   -15.3311 O.2        1  LIG1  -0.4900
      9 C6        -15.9519    17.6735   -16.0278 C.2        1  LIG1   0.5300
     10 O3        -15.7506    18.6839   -15.3864 O.2        1  LIG1  -0.5000
     11 N2        -16.2934    17.7581   -17.3287 N.am       1  LIG1  -0.5900
     12 C7        -15.8831    18.8215   -18.2596 C.3        1  LIG1   0.1000
     13 C8        -16.4484    18.4560   -19.6515 C.3        1  LIG1  -0.1400
     14 C9        -16.6716    16.9338   -19.5262 C.3        1  LIG1  -0.1100
     15 H1        -15.7252    16.4093   -19.6581 H          1  LIG1   0.1200
     16 C10       -17.6838    16.4248   -20.5282 C.3        1  LIG1  -0.1300
     17 C11       -19.0718    17.0033   -20.2525 C.3        1  LIG1  -0.0100
     18 N3        -19.4729    16.6130   -18.8918 N.4        1  LIG1  -0.3800
     19 H2        -19.3858    15.6132   -18.7872 H          1  LIG1   0.4300
     20 C12       -20.8663    17.0135   -18.6551 C.3        1  LIG1  -0.0500
     21 C13       -18.5957    17.2854   -17.9318 C.3        1  LIG1  -0.0300
     22 C14       -17.1418    16.7914   -18.0685 C.3        1  LIG1   0.1300
     23 H3        -17.0268    15.7768   -17.6870 H          1  LIG1   0.1300
     24 C15       -13.6288    14.5324   -13.1769 C.ar       1  LIG1  -0.1300
     25 C16       -12.7904    15.6891   -12.6970 C.3        1  LIG1  -0.1100
     26 C17       -13.5087    13.2956   -12.5734 C.ar       1  LIG1  -0.0700
     27 C18       -14.2800    12.2343   -13.0073 C.ar       1  LIG1  -0.1100
     28 C19       -14.1459    10.8867   -12.3461 C.3        1  LIG1  -0.1100
     29 H4        -17.3604    10.6911   -15.8145 H          1  LIG1   0.0500
     30 H5        -17.5307    12.3830   -15.2880 H          1  LIG1   0.0600
     31 H6        -16.2531    11.9348   -16.4436 H          1  LIG1   0.1000
     32 H7        -15.9896    13.7794   -15.4817 H          1  LIG1   0.1500
     33 H8        -13.8822    16.5604   -14.8717 H          1  LIG1   0.4200
     34 H9        -16.2916    19.7779   -17.9329 H          1  LIG1   0.0900
     35 H10       -14.7954    18.8763   -18.3038 H          1  LIG1   0.0900
     36 H11       -17.3906    18.9722   -19.8352 H          1  LIG1   0.0800
     37 H12       -15.7239    18.6784   -20.4349 H          1  LIG1   0.1000
     38 H13       -17.3696    16.7126   -21.5315 H          1  LIG1   0.1200
     39 H14       -17.7313    15.3375   -20.4676 H          1  LIG1   0.1000
     40 H15       -19.0385    18.0902   -20.3282 H          1  LIG1   0.1300
     41 H16       -19.7854    16.6059   -20.9741 H          1  LIG1   0.1400
     42 H17       -21.1614    16.7235   -17.6468 H          1  LIG1   0.1300
     43 H18       -20.9571    18.0943   -18.7636 H          1  LIG1   0.1200
     44 H19       -21.5143    16.5199   -19.3794 H          1  LIG1   0.1200
     45 H20       -18.6271    18.3603   -18.1103 H          1  LIG1   0.1300
     46 H21       -18.9485    17.0812   -16.9208 H          1  LIG1   0.1300
     47 H22       -12.1551    15.3607   -11.8746 H          1  LIG1   0.0700
     48 H23       -12.1677    16.0506   -13.5153 H          1  LIG1   0.0800
     49 H24       -13.4423    16.4927   -12.3541 H          1  LIG1   0.0600
     50 H25       -12.8133    13.1588   -11.7585 H          1  LIG1   0.1400
     51 H26       -13.4052    10.9455   -11.5485 H          1  LIG1   0.0700
     52 H27       -15.1075    10.5900   -11.9278 H          1  LIG1   0.0700
     53 H28       -13.8277    10.1501   -13.0839 H          1  LIG1   0.0700
@<TRIPOS>BOND
     1    1    2 1
     2    1   29 1
     3    1   30 1
     4    1   31 1
     5    2    3 1
     6    3   27 ar
     7    3    4 ar
     8    4    5 ar
     9    4   32 1
    10    5    6 1
    11    5   24 ar
    12    6    7 am
    13    6   33 1
    14    7    8 2
    15    7    9 1
    16    9   10 2
    17    9   11 am
    18   11   22 1
    19   11   12 1
    20   12   13 1
    21   12   34 1
    22   12   35 1
    23   13   14 1
    24   13   36 1
    25   13   37 1
    26   14   15 1
    27   14   22 1
    28   14   16 1
    29   16   17 1
    30   16   38 1
    31   16   39 1
    32   17   18 1
    33   17   40 1
    34   17   41 1
    35   18   19 1
    36   18   20 1
    37   18   21 1
    38   20   42 1
    39   20   43 1
    40   20   44 1
    41   21   22 1
    42   21   45 1
    43   21   46 1
    44   22   23 1
    45   24   25 1
    46   24   26 ar
    47   25   47 1
    48   25   48 1
    49   25   49 1
    50   26   27 ar
    51   26   50 1
    52   27   28 1
    53   28   51 1
    54   28   52 1
    55   28   53 1
##########                 Name:     ZINC000423069736
##########          Protonation:                 none
##########               SMILES:   C[C@@H](CN[C@@H]1CCCCC[C@H]1[NH3+])OC1=CC=C(Cl)C=C1
##########            Long Name:   NO_LONG_NAME
##########          FlexRecCode: 1
##########               Number:                 7768
##########   Ligand Source File: /nfs/db/export/3D/CG/ADMO/CGADMO.xbah.db2.gz
##########                 Rank:                    1
##########               Setnum:                   28
##########             Matchnum:                    1
##########                Cloud:                    1
##########        Electrostatic:           -43.176762
##########                 Gist:             0.000000
##########        Van der Waals:           -23.895918
##########  Ligand Polar Desolv:            12.227922
########## Ligand Apolar Desolv:            -3.155846
##########      Internal Energy:             0.000000
##########      Receptor Energy:             0.000000
########## Receptor Desolvation:             0.000000
########## Receptor Hydrophobic:             0.000000
##########         Total Energy:           -58.000603
##########        Ligand Charge:             1.000000
##########            Arbitrary:    +999.9990
##########        Ligand Energy:             0.000000

@<TRIPOS>MOLECULE
 ZINC000423069736      none
   46    47     0     0     0



@<TRIPOS>ATOM
      1 C1        -17.0030    20.5660   -22.2965 C.3        1  LIG1  -0.1900
      2 C2        -17.4184    19.9537   -20.9573 C.3        1  LIG1   0.0800
      3 H1        -17.4057    20.7239   -20.1861 H          1  LIG1   0.0900
      4 C3        -18.8297    19.3751   -21.0769 C.3        1  LIG1   0.0600
      5 N1        -19.0498    18.3952   -20.0048 N.3        1  LIG1  -0.6900
      6 C4        -20.3978    17.8174   -20.0883 C.3        1  LIG1   0.0700
      7 H2        -20.5090    17.3206   -21.0520 H          1  LIG1   0.0800
      8 C5        -21.4340    18.9533   -19.9904 C.3        1  LIG1  -0.1100
      9 C6        -22.8454    18.4458   -19.6383 C.3        1  LIG1  -0.1300
     10 C7        -23.2058    17.1864   -20.3786 C.3        1  LIG1  -0.1300
     11 C8        -22.8598    15.9772   -19.4858 C.3        1  LIG1  -0.1300
     12 C9        -21.4424    15.6479   -19.5228 C.3        1  LIG1  -0.1300
     13 C10       -20.5589    16.7977   -18.9935 C.3        1  LIG1   0.0300
     14 H3        -21.0366    17.2581   -18.1286 H          1  LIG1   0.1500
     15 N2        -19.2428    16.2714   -18.6082 N.4        1  LIG1  -0.6400
     16 H4        -18.7527    15.9555   -19.4317 H          1  LIG1   0.4300
     17 H5        -18.7084    16.9989   -18.1573 H          1  LIG1   0.4400
     18 H6        -19.3629    15.4983   -17.9711 H          1  LIG1   0.4400
     19 O1        -16.5049    18.9124   -20.6058 O.3        1  LIG1  -0.3200
     20 C11       -15.8218    19.0586   -19.4398 C.ar       1  LIG1   0.1300
     21 C12       -14.9893    20.1528   -19.2551 C.ar       1  LIG1  -0.1900
     22 C13       -14.2958    20.2995   -18.0695 C.ar       1  LIG1  -0.0700
     23 C14       -14.4307    19.3558   -17.0667 C.ar       1  LIG1  -0.0700
     24 Cl1       -13.5577    19.5420   -15.5777 Cl         1  LIG1  -0.0600
     25 C15       -15.2609    18.2638   -17.2489 C.ar       1  LIG1  -0.0700
     26 C16       -15.9605    18.1167   -18.4310 C.ar       1  LIG1  -0.1400
     27 H7        -17.0158    19.7958   -23.0677 H          1  LIG1   0.0800
     28 H8        -17.7000    21.3602   -22.5646 H          1  LIG1   0.0700
     29 H9        -15.9977    20.9783   -22.2113 H          1  LIG1   0.0700
     30 H10       -19.5606    20.1791   -20.9900 H          1  LIG1   0.1100
     31 H11       -18.9412    18.8860   -22.0446 H          1  LIG1   0.0600
     32 H12       -18.3451    17.6733   -20.0246 H          1  LIG1   0.3200
     33 H13       -21.1121    19.6576   -19.2233 H          1  LIG1   0.0800
     34 H14       -21.4762    19.4740   -20.9470 H          1  LIG1   0.0800
     35 H15       -22.8930    18.2510   -18.5669 H          1  LIG1   0.0700
     36 H16       -23.5708    19.2207   -19.8863 H          1  LIG1   0.0800
     37 H17       -24.2731    17.1846   -20.6001 H          1  LIG1   0.0800
     38 H18       -22.6364    17.1314   -21.3064 H          1  LIG1   0.0700
     39 H19       -23.1425    16.2049   -18.4581 H          1  LIG1   0.0700
     40 H20       -23.4318    15.1134   -19.8243 H          1  LIG1   0.0900
     41 H21       -21.2703    14.7608   -18.9133 H          1  LIG1   0.0900
     42 H22       -21.1580    15.4277   -20.5517 H          1  LIG1   0.0900
     43 H23       -14.8832    20.8893   -20.0378 H          1  LIG1   0.1400
     44 H24       -13.6476    21.1512   -17.9252 H          1  LIG1   0.1400
     45 H25       -15.3652    17.5284   -16.4648 H          1  LIG1   0.1400
     46 H26       -16.6085    17.2644   -18.5728 H          1  LIG1   0.1400
@<TRIPOS>BOND
     1    1    2 1
     2    1   27 1
     3    1   28 1
     4    1   29 1
     5    2    3 1
     6    2    4 1
     7    2   19 1
     8    4    5 1
     9    4   30 1
    10    4   31 1
    11    5    6 1
    12    5   32 1
    13    6    7 1
    14    6   13 1
    15    6    8 1
    16    8    9 1
    17    8   33 1
    18    8   34 1
    19    9   10 1
    20    9   35 1
    21    9   36 1
    22   10   11 1
    23   10   37 1
    24   10   38 1
    25   11   12 1
    26   11   39 1
    27   11   40 1
    28   12   13 1
    29   12   41 1
    30   12   42 1
    31   13   14 1
    32   13   15 1
    33   15   16 1
    34   15   17 1
    35   15   18 1
    36   19   20 1
    37   20   26 ar
    38   20   21 ar
    39   21   22 ar
    40   21   43 1
    41   22   23 ar
    42   22   44 1
    43   23   24 1
    44   23   25 ar
    45   25   26 ar
    46   25   45 1
    47   26   46 1
##########                 Name:     ZINC000422901222
##########          Protonation:                 none
##########               SMILES:   CCCC[C@@H](C[NH3+])NC(=O)C1=CN=C2C(C)=CC=CN2C1=O
##########            Long Name:   NO_LONG_NAME
##########          FlexRecCode: 1
##########               Number:                11778
##########   Ligand Source File: /nfs/db/export/3D/DD/ADRO/DDADRO.xaya.db2.gz
##########                 Rank:                    1
##########               Setnum:                  154
##########             Matchnum:                    1
##########                Cloud:                    1
##########        Electrostatic:           -37.016560
##########                 Gist:             0.000000
##########        Van der Waals:           -30.833563
##########  Ligand Polar Desolv:            13.132666
########## Ligand Apolar Desolv:            -3.285879
##########      Internal Energy:             0.000000
##########      Receptor Energy:             0.000000
########## Receptor Desolvation:             0.000000
########## Receptor Hydrophobic:             0.000000
##########         Total Energy:           -58.003334
##########        Ligand Charge:             1.000000
##########            Arbitrary:    +999.9990
##########        Ligand Energy:             0.000000

@<TRIPOS>MOLECULE
 ZINC000422901222      none
   45    46     0     0     0



@<TRIPOS>ATOM
      1 C1        -16.9024    19.2297   -23.2902 C.3        1  LIG1  -0.1600
      2 C2        -16.6710    18.0867   -22.2997 C.3        1  LIG1  -0.1200
      3 C3        -16.8679    18.6011   -20.8723 C.3        1  LIG1  -0.1200
      4 C4        -16.6366    17.4581   -19.8818 C.3        1  LIG1  -0.1300
      5 C5        -16.8334    17.9726   -18.4544 C.3        1  LIG1   0.1100
      6 H1        -16.4013    18.9693   -18.3646 H          1  LIG1   0.1200
      7 C6        -18.3287    18.0344   -18.1363 C.3        1  LIG1  -0.0200
      8 N1        -18.8109    16.6915   -17.7868 N.4        1  LIG1  -0.6300
      9 H2        -18.6580    16.0664   -18.5641 H          1  LIG1   0.4300
     10 H3        -18.3089    16.3533   -16.9795 H          1  LIG1   0.4400
     11 H4        -19.7969    16.7322   -17.5770 H          1  LIG1   0.4300
     12 N2        -16.1708    17.0665   -17.5130 N.am       1  LIG1  -0.7300
     13 C7        -15.6748    17.5435   -16.3542 C.2        1  LIG1   0.5900
     14 O1        -15.7772    18.7270   -16.0898 O.2        1  LIG1  -0.5600
     15 C8        -15.0111    16.6360   -15.4113 C.2        1  LIG1  -0.4100
     16 C9        -13.9921    17.0989   -14.5675 C.2        1  LIG1   0.2800
     17 N3        -13.4094    16.2684   -13.7281 N.2        1  LIG1  -0.5400
     18 C10       -13.7631    14.9824   -13.6538 C.2        1  LIG1   0.4100
     19 C11       -13.1069    14.1421   -12.7391 C.2        1  LIG1  -0.1000
     20 C12       -12.0175    14.6887   -11.8529 C.3        1  LIG1  -0.1100
     21 C13       -13.4635    12.8274   -12.6585 C.2        1  LIG1  -0.0200
     22 C14       -14.4782    12.3353   -13.4887 C.2        1  LIG1  -0.1400
     23 C15       -15.0985    13.1606   -14.3636 C.2        1  LIG1   0.0900
     24 N4        -14.7492    14.4733   -14.4499 N.am       1  LIG1  -0.4200
     25 C16       -15.3897    15.2741   -15.3289 C.2        1  LIG1   0.5300
     26 O2        -16.2740    14.8317   -16.0412 O.2        1  LIG1  -0.5300
     27 H5        -16.7622    18.8632   -24.3071 H          1  LIG1   0.0500
     28 H6        -17.9182    19.6084   -23.1773 H          1  LIG1   0.0600
     29 H7        -16.1915    20.0319   -23.0918 H          1  LIG1   0.0600
     30 H8        -17.3821    17.2846   -22.4981 H          1  LIG1   0.0600
     31 H9        -15.6553    17.7081   -22.4126 H          1  LIG1   0.0600
     32 H10       -16.1571    19.4033   -20.6739 H          1  LIG1   0.0700
     33 H11       -17.8838    18.9797   -20.7593 H          1  LIG1   0.0700
     34 H12       -17.3474    16.6561   -20.0802 H          1  LIG1   0.0900
     35 H13       -15.6207    17.0796   -19.9948 H          1  LIG1   0.0800
     36 H14       -18.4939    18.7095   -17.2966 H          1  LIG1   0.1500
     37 H15       -18.8710    18.3996   -19.0084 H          1  LIG1   0.1300
     38 H16       -16.0892    16.1231   -17.7236 H          1  LIG1   0.4300
     39 H17       -13.6854    18.1337   -14.6061 H          1  LIG1   0.1900
     40 H18       -11.6322    13.8918   -11.2170 H          1  LIG1   0.0900
     41 H19       -11.2103    15.0829   -12.4704 H          1  LIG1   0.0800
     42 H20       -12.4218    15.4869   -11.2304 H          1  LIG1   0.0900
     43 H21       -12.9664    12.1710   -11.9595 H          1  LIG1   0.1700
     44 H22       -14.7658    11.2958   -13.4311 H          1  LIG1   0.1700
     45 H23       -15.8799    12.7732   -15.0007 H          1  LIG1   0.1900
@<TRIPOS>BOND
     1    1    2 1
     2    1   27 1
     3    1   28 1
     4    1   29 1
     5    2    3 1
     6    2   30 1
     7    2   31 1
     8    3    4 1
     9    3   32 1
    10    3   33 1
    11    4    5 1
    12    4   34 1
    13    4   35 1
    14    5    6 1
    15    5    7 1
    16    5   12 1
    17    7    8 1
    18    7   36 1
    19    7   37 1
    20    8    9 1
    21    8   10 1
    22    8   11 1
    23   12   13 am
    24   12   38 1
    25   13   14 2
    26   13   15 1
    27   15   25 1
    28   15   16 2
    29   16   17 1
    30   16   39 1
    31   17   18 2
    32   18   24 1
    33   18   19 1
    34   19   20 1
    35   19   21 2
    36   20   40 1
    37   20   41 1
    38   20   42 1
    39   21   22 1
    40   21   43 1
    41   22   23 2
    42   22   44 1
    43   23   24 1
    44   23   45 1
    45   24   25 am
    46   25   26 2
##########                 Name:     ZINC000568745637
##########          Protonation:                 none
##########               SMILES:   C[NH2+]CCCN1C(=O)OC2=CC(Br)=C(F)C=C21
##########            Long Name:   NO_LONG_NAME
##########          FlexRecCode: 1
##########               Number:                  952
##########   Ligand Source File: /nfs/db/export/3D/DE/ADRO/DEADRO.xbav.db2.gz
##########                 Rank:                    1
##########               Setnum:                   20
##########             Matchnum:                    1
##########                Cloud:                    1
##########        Electrostatic:           -44.499699
##########                 Gist:             0.000000
##########        Van der Waals:           -26.888618
##########  Ligand Polar Desolv:            17.425282
########## Ligand Apolar Desolv:            -4.034264
##########      Internal Energy:             0.000000
##########      Receptor Energy:             0.000000
########## Receptor Desolvation:             0.000000
########## Receptor Hydrophobic:             0.000000
##########         Total Energy:           -57.997303
##########        Ligand Charge:             1.000000
##########            Arbitrary:    +999.9990
##########        Ligand Energy:             0.000000

@<TRIPOS>MOLECULE
 ZINC000568745637      none
   30    31     0     0     0



@<TRIPOS>ATOM
      1 C1        -19.0049    16.9912   -19.2175 C.3        1  LIG1  -0.0500
      2 N1        -18.2489    16.4579   -18.0763 N.4        1  LIG1  -0.5100
      3 H1        -18.8027    15.7599   -17.6026 H          1  LIG1   0.4300
      4 H2        -17.3918    16.0401   -18.4064 H          1  LIG1   0.4300
      5 C2        -17.9347    17.5490   -17.1443 C.3        1  LIG1  -0.0100
      6 C3        -17.1473    16.9936   -15.9557 C.3        1  LIG1  -0.1800
      7 C4        -15.8476    16.3601   -16.4563 C.3        1  LIG1   0.1400
      8 N2        -15.0938    15.8282   -15.3184 N.am       1  LIG1  -0.5500
      9 C5        -14.1801    16.4953   -14.5858 C.2        1  LIG1   0.6400
     10 O1        -13.8438    17.6500   -14.7651 O.2        1  LIG1  -0.4700
     11 O2        -13.6991    15.6877   -13.6277 O.3        1  LIG1  -0.2200
     12 C6        -14.2979    14.4750   -13.7249 C.ar       1  LIG1   0.0400
     13 C7        -14.1739    13.2999   -13.0013 C.ar       1  LIG1  -0.0200
     14 C8        -14.9341    12.1967   -13.3414 C.ar       1  LIG1  -0.1200
     15 Br1       -14.7635    10.5942   -12.3520 Br         1  LIG1   0.0100
     16 C9        -15.8216    12.2606   -14.4047 C.ar       1  LIG1   0.1600
     17 F1        -16.5618    11.1785   -14.7310 F          1  LIG1  -0.1100
     18 C10       -15.9510    13.4304   -15.1318 C.ar       1  LIG1  -0.1300
     19 C11       -15.1948    14.5405   -14.7913 C.ar       1  LIG1   0.1100
     20 H3        -18.4068    17.7451   -19.7291 H          1  LIG1   0.1300
     21 H4        -19.2381    16.1816   -19.9090 H          1  LIG1   0.1300
     22 H5        -19.9308    17.4424   -18.8609 H          1  LIG1   0.1200
     23 H6        -17.3364    18.3030   -17.6560 H          1  LIG1   0.1400
     24 H7        -18.8604    18.0004   -16.7877 H          1  LIG1   0.1400
     25 H8        -16.9141    17.8032   -15.2641 H          1  LIG1   0.1000
     26 H9        -17.7454    16.2396   -15.4441 H          1  LIG1   0.1000
     27 H10       -16.0809    15.5505   -17.1480 H          1  LIG1   0.1100
     28 H11       -15.2495    17.1141   -16.9679 H          1  LIG1   0.1100
     29 H12       -13.4834    13.2458   -12.1726 H          1  LIG1   0.1700
     30 H13       -16.6425    13.4795   -15.9599 H          1  LIG1   0.1600
@<TRIPOS>BOND
     1    1    2 1
     2    1   20 1
     3    1   21 1
     4    1   22 1
     5    2    3 1
     6    2    4 1
     7    2    5 1
     8    5    6 1
     9    5   23 1
    10    5   24 1
    11    6    7 1
    12    6   25 1
    13    6   26 1
    14    7    8 1
    15    7   27 1
    16    7   28 1
    17    8   19 1
    18    8    9 am
    19    9   10 2
    20    9   11 1
    21   11   12 1
    22   12   19 ar
    23   12   13 ar
    24   13   14 ar
    25   13   29 1
    26   14   15 1
    27   14   16 ar
    28   16   17 1
    29   16   18 ar
    30   18   19 ar
    31   18   30 1
##########                 Name:     ZINC000584136937
##########          Protonation:                 none
##########               SMILES:   COc1cncc(C[NH2+][C@H](c2ccc(Cl)cc2)C2CCC2)c1
##########            Long Name:   NO_LONG_NAME
##########          FlexRecCode: 1
##########               Number:                 3897
##########   Ligand Source File: /nfs/db/export/3D/DI/ADRO/DIADRO.xgf.db2.gz
##########                 Rank:                    1
##########               Setnum:                   24
##########             Matchnum:                    1
##########                Cloud:                    1
##########        Electrostatic:           -41.357983
##########                 Gist:             0.000000
##########        Van der Waals:           -29.342363
##########  Ligand Polar Desolv:            17.360558
########## Ligand Apolar Desolv:            -4.664855
##########      Internal Energy:             0.000000
##########      Receptor Energy:             0.000000
########## Receptor Desolvation:             0.000000
########## Receptor Hydrophobic:             0.000000
##########         Total Energy:           -58.004646
##########        Ligand Charge:             1.000000
##########            Arbitrary:    +999.9990
##########        Ligand Energy:             0.000000

@<TRIPOS>MOLECULE
 ZINC000584136937      none
   44    46     0     0     0



@<TRIPOS>ATOM
      1 C1        -15.6815    13.0597   -15.3183 C.3        1  LIG1   0.0200
      2 O1        -15.0608    14.2849   -14.9235 O.3        1  LIG1  -0.3000
      3 C2        -15.3303    15.3836   -15.6768 C.ar       1  LIG1   0.0900
      4 C3        -14.7617    16.6090   -15.3620 C.ar       1  LIG1   0.0500
      5 N1        -15.0204    17.6774   -16.0898 N.ar       1  LIG1  -0.4400
      6 C4        -15.8212    17.6278   -17.1361 C.ar       1  LIG1   0.0900
      7 C5        -16.4248    16.4423   -17.5121 C.ar       1  LIG1  -0.1800
      8 C6        -17.3382    16.3982   -18.7100 C.3        1  LIG1   0.0500
      9 N2        -18.7166    16.6766   -18.2852 N.4        1  LIG1  -0.5100
     10 H1        -19.0085    15.9821   -17.6140 H          1  LIG1   0.4300
     11 H2        -18.7600    17.5919   -17.8627 H          1  LIG1   0.4300
     12 C7        -19.6069    16.6336   -19.4528 C.3        1  LIG1   0.0900
     13 H3        -19.5600    15.6449   -19.9094 H          1  LIG1   0.1500
     14 C8        -19.1710    17.6709   -20.4554 C.ar       1  LIG1  -0.1400
     15 C9        -19.6864    18.9522   -20.3925 C.ar       1  LIG1  -0.1100
     16 C10       -19.2870    19.9040   -21.3115 C.ar       1  LIG1  -0.1000
     17 C11       -18.3712    19.5742   -22.2949 C.ar       1  LIG1  -0.0100
     18 Cl1       -17.8687    20.7693   -23.4493 Cl         1  LIG1  -0.0400
     19 C12       -17.8557    18.2919   -22.3574 C.ar       1  LIG1  -0.1000
     20 C13       -18.2517    17.3425   -21.4341 C.ar       1  LIG1  -0.0700
     21 C14       -21.0426    16.9235   -19.0106 C.3        1  LIG1  -0.1400
     22 C15       -22.0677    16.8423   -20.1539 C.3        1  LIG1  -0.1600
     23 C16       -23.0127    16.1572   -19.1527 C.3        1  LIG1  -0.1400
     24 C17       -21.7538    15.7087   -18.3918 C.3        1  LIG1  -0.1200
     25 C18       -16.1758    15.2939   -16.7781 C.ar       1  LIG1  -0.0800
     26 H4        -15.3832    12.2646   -14.6348 H          1  LIG1   0.0700
     27 H5        -16.7650    13.1756   -15.2900 H          1  LIG1   0.1200
     28 H6        -15.3697    12.8042   -16.3310 H          1  LIG1   0.0700
     29 H7        -14.1008    16.6888   -14.5116 H          1  LIG1   0.1700
     30 H8        -16.0082    18.5253   -17.7068 H          1  LIG1   0.1700
     31 H9        -17.0229    17.1483   -19.4351 H          1  LIG1   0.1500
     32 H10       -17.2913    15.4095   -19.1663 H          1  LIG1   0.1500
     33 H11       -20.4016    19.2092   -19.6250 H          1  LIG1   0.1300
     34 H12       -19.6900    20.9048   -21.2625 H          1  LIG1   0.1500
     35 H13       -17.1410    18.0339   -23.1249 H          1  LIG1   0.1500
     36 H14       -17.8491    16.3415   -21.4826 H          1  LIG1   0.1400
     37 H15       -21.1259    17.8302   -18.4113 H          1  LIG1   0.1200
     38 H16       -22.4220    17.8158   -20.4928 H          1  LIG1   0.0800
     39 H17       -21.7568    16.1949   -20.9740 H          1  LIG1   0.1000
     40 H18       -23.6359    16.8547   -18.5930 H          1  LIG1   0.0900
     41 H19       -23.5803    15.3319   -19.5825 H          1  LIG1   0.0800
     42 H20       -21.3571    14.7514   -18.7299 H          1  LIG1   0.0900
     43 H21       -21.8547    15.7670   -17.3080 H          1  LIG1   0.0800
     44 H22       -16.6335    14.3540   -17.0492 H          1  LIG1   0.1500
@<TRIPOS>BOND
     1    1    2 1
     2    1   26 1
     3    1   27 1
     4    1   28 1
     5    2    3 1
     6    3   25 ar
     7    3    4 ar
     8    4    5 ar
     9    4   29 1
    10    5    6 ar
    11    6    7 ar
    12    6   30 1
    13    7    8 1
    14    7   25 ar
    15    8    9 1
    16    8   31 1
    17    8   32 1
    18    9   10 1
    19    9   11 1
    20    9   12 1
    21   12   13 1
    22   12   14 1
    23   12   21 1
    24   14   20 ar
    25   14   15 ar
    26   15   16 ar
    27   15   33 1
    28   16   17 ar
    29   16   34 1
    30   17   18 1
    31   17   19 ar
    32   19   20 ar
    33   19   35 1
    34   20   36 1
    35   21   24 1
    36   21   22 1
    37   21   37 1
    38   22   23 1
    39   22   38 1
    40   22   39 1
    41   23   24 1
    42   23   40 1
    43   23   41 1
    44   24   42 1
    45   24   43 1
    46   25   44 1
##########                 Name:     ZINC000163793821
##########          Protonation:                 none
##########               SMILES:   CC[C@@H]([NH2+][C@H](C)c1ccc(-c2ccccc2)o1)c1ccncc1
##########            Long Name:   NO_LONG_NAME
##########          FlexRecCode: 1
##########               Number:                 8158
##########   Ligand Source File: /nfs/db/export/3D/DK/ADRO/DKADRO.xai.db2.gz
##########                 Rank:                    1
##########               Setnum:                   21
##########             Matchnum:                    1
##########                Cloud:                    1
##########        Electrostatic:           -35.148479
##########                 Gist:             0.000000
##########        Van der Waals:           -31.151785
##########  Ligand Polar Desolv:            14.534192
########## Ligand Apolar Desolv:            -6.230893
##########      Internal Energy:             0.000000
##########      Receptor Energy:             0.000000
########## Receptor Desolvation:             0.000000
########## Receptor Hydrophobic:             0.000000
##########         Total Energy:           -57.996964
##########        Ligand Charge:             1.000000
##########            Arbitrary:    +999.9990
##########        Ligand Energy:             0.000000

@<TRIPOS>MOLECULE
 ZINC000163793821      none
   46    48     0     0     0



@<TRIPOS>ATOM
      1 C1        -19.2954    18.9595   -20.6754 C.3        1  LIG1  -0.1600
      2 C2        -18.5710    18.3828   -19.4574 C.3        1  LIG1  -0.1400
      3 C3        -18.9135    16.8983   -19.3160 C.3        1  LIG1   0.0700
      4 H1        -18.5974    16.3654   -20.2127 H          1  LIG1   0.1500
      5 N1        -18.2179    16.3445   -18.1466 N.4        1  LIG1  -0.5100
      6 H2        -18.2419    17.0145   -17.3924 H          1  LIG1   0.4300
      7 H3        -18.6749    15.4935   -17.8552 H          1  LIG1   0.4300
      8 C4        -16.8217    16.0543   -18.4994 C.3        1  LIG1   0.1300
      9 H4        -16.4335    16.8521   -19.1328 H          1  LIG1   0.1700
     10 C5        -16.7521    14.7248   -19.2536 C.3        1  LIG1  -0.1800
     11 C6        -15.9945    15.9630   -17.2431 C.2        1  LIG1  -0.1100
     12 C7        -15.3553    16.9885   -16.6472 C.2        1  LIG1  -0.1200
     13 C8        -14.7087    16.4664   -15.5090 C.2        1  LIG1  -0.2000
     14 C9        -14.9920    15.1372   -15.4728 C.2        1  LIG1   0.0900
     15 C10       -14.5245    14.1782   -14.4501 C.ar       1  LIG1  -0.0500
     16 C11       -15.3004    13.0635   -14.1278 C.ar       1  LIG1  -0.0900
     17 C12       -14.8580    12.1720   -13.1725 C.ar       1  LIG1  -0.1100
     18 C13       -13.6482    12.3807   -12.5343 C.ar       1  LIG1  -0.0900
     19 C14       -12.8744    13.4837   -12.8491 C.ar       1  LIG1  -0.1200
     20 C15       -13.3026    14.3802   -13.8064 C.ar       1  LIG1  -0.1000
     21 O1        -15.7770    14.8470   -16.5282 O.3        1  LIG1  -0.1800
     22 C16       -20.4015    16.7410   -19.1363 C.ar       1  LIG1  -0.0900
     23 C17       -21.0528    17.3284   -18.0625 C.ar       1  LIG1  -0.1800
     24 C18       -22.4183    17.1623   -17.9304 C.ar       1  LIG1   0.1200
     25 N2        -23.1001    16.4551   -18.8103 N.ar       1  LIG1  -0.4600
     26 C19       -22.5140    15.8824   -19.8434 C.ar       1  LIG1   0.1200
     27 C20       -21.1526    16.0101   -20.0441 C.ar       1  LIG1  -0.1400
     28 H5        -19.0514    20.0171   -20.7761 H          1  LIG1   0.0800
     29 H6        -18.9794    18.4265   -21.5721 H          1  LIG1   0.0700
     30 H7        -20.3717    18.8457   -20.5454 H          1  LIG1   0.0700
     31 H8        -17.4947    18.4966   -19.5874 H          1  LIG1   0.0900
     32 H9        -18.8870    18.9157   -18.5606 H          1  LIG1   0.0900
     33 H10       -15.7160    14.5095   -19.5154 H          1  LIG1   0.0900
     34 H11       -17.1400    13.9271   -18.6202 H          1  LIG1   0.0900
     35 H12       -17.3502    14.7908   -20.1623 H          1  LIG1   0.1100
     36 H13       -15.3405    18.0161   -16.9793 H          1  LIG1   0.1600
     37 H14       -14.1047    17.0160   -14.8022 H          1  LIG1   0.1700
     38 H15       -16.2452    12.8996   -14.6248 H          1  LIG1   0.1300
     39 H16       -15.4574    11.3093   -12.9219 H          1  LIG1   0.1400
     40 H17       -13.3066    11.6799   -11.7871 H          1  LIG1   0.1300
     41 H18       -11.9310    13.6409   -12.3475 H          1  LIG1   0.1300
     42 H19       -12.6974    15.2407   -14.0512 H          1  LIG1   0.1200
     43 H20       -20.4998    17.9082   -17.3382 H          1  LIG1   0.1300
     44 H21       -22.9331    17.6167   -17.0968 H          1  LIG1   0.1700
     45 H22       -23.1053    15.3105   -20.5431 H          1  LIG1   0.1700
     46 H23       -20.6783    15.5389   -20.8924 H          1  LIG1   0.1500
@<TRIPOS>BOND
     1    1    2 1
     2    1   28 1
     3    1   29 1
     4    1   30 1
     5    2    3 1
     6    2   31 1
     7    2   32 1
     8    3    4 1
     9    3    5 1
    10    3   22 1
    11    5    6 1
    12    5    7 1
    13    5    8 1
    14    8    9 1
    15    8   10 1
    16    8   11 1
    17   10   33 1
    18   10   34 1
    19   10   35 1
    20   11   21 1
    21   11   12 2
    22   12   13 1
    23   12   36 1
    24   13   14 2
    25   13   37 1
    26   14   15 1
    27   14   21 1
    28   15   20 ar
    29   15   16 ar
    30   16   17 ar
    31   16   38 1
    32   17   18 ar
    33   17   39 1
    34   18   19 ar
    35   18   40 1
    36   19   20 ar
    37   19   41 1
    38   20   42 1
    39   22   27 ar
    40   22   23 ar
    41   23   24 ar
    42   23   43 1
    43   24   25 ar
    44   24   44 1
    45   25   26 ar
    46   26   27 ar
    47   26   45 1
    48   27   46 1
##########                 Name:     ZINC000601145950
##########          Protonation:                 none
##########               SMILES:   COC(=O)[C@H](C)NC(=O)[C@H](C)[NH2+]CC1=CC=C(C)C=C1Cl
##########            Long Name:   NO_LONG_NAME
##########          FlexRecCode: 1
##########               Number:                 8972
##########   Ligand Source File: /nfs/db/export/3D/DD/ADMO/DDADMO.xje.db2.gz
##########                 Rank:                    1
##########               Setnum:                   21
##########             Matchnum:                    1
##########                Cloud:                    1
##########        Electrostatic:           -40.743668
##########                 Gist:             0.000000
##########        Van der Waals:           -26.433563
##########  Ligand Polar Desolv:            12.991703
########## Ligand Apolar Desolv:            -3.809578
##########      Internal Energy:             0.000000
##########      Receptor Energy:             0.000000
########## Receptor Desolvation:             0.000000
########## Receptor Hydrophobic:             0.000000
##########         Total Energy:           -57.995106
##########        Ligand Charge:             1.000000
##########            Arbitrary:    +999.9990
##########        Ligand Energy:             0.000000

@<TRIPOS>MOLECULE
 ZINC000601145950      none
   43    43     0     0     0



@<TRIPOS>ATOM
      1 C1        -17.4048    22.6369   -22.3507 C.3        1  LIG1   0.0300
      2 O1        -16.5124    21.6622   -21.7492 O.3        1  LIG1  -0.3500
      3 C2        -17.0667    20.5271   -21.2952 C.2        1  LIG1   0.4600
      4 O2        -18.2580    20.3537   -21.3969 O.2        1  LIG1  -0.5000
      5 C3        -16.2029    19.4690   -20.6585 C.3        1  LIG1   0.1500
      6 H1        -15.7028    19.8859   -19.7843 H          1  LIG1   0.1400
      7 C4        -15.1553    18.9914   -21.6661 C.3        1  LIG1  -0.1600
      8 N1        -17.0387    18.3374   -20.2495 N.am       1  LIG1  -0.6900
      9 C5        -17.5845    18.3132   -19.0175 C.2        1  LIG1   0.5100
     10 O3        -17.3837    19.2282   -18.2474 O.2        1  LIG1  -0.5200
     11 C6        -18.4440    17.1491   -18.5969 C.3        1  LIG1   0.0100
     12 H2        -18.5092    16.4313   -19.4146 H          1  LIG1   0.1700
     13 C7        -19.8460    17.6510   -18.2460 C.3        1  LIG1  -0.1900
     14 N2        -17.8480    16.4996   -17.4218 N.4        1  LIG1  -0.5000
     15 H3        -17.7877    17.1640   -16.6648 H          1  LIG1   0.4400
     16 H4        -18.4235    15.7203   -17.1402 H          1  LIG1   0.4300
     17 C8        -16.5018    16.0177   -17.7587 C.3        1  LIG1   0.0400
     18 C9        -15.8904    15.3515   -16.5531 C.ar       1  LIG1  -0.1700
     19 C10       -16.0670    13.9963   -16.3485 C.ar       1  LIG1  -0.0700
     20 C11       -15.5060    13.3850   -15.2424 C.ar       1  LIG1  -0.1100
     21 C12       -14.7688    14.1289   -14.3405 C.ar       1  LIG1  -0.0300
     22 C13       -14.1578    13.4619   -13.1353 C.3        1  LIG1  -0.1300
     23 C14       -14.5915    15.4846   -14.5441 C.ar       1  LIG1  -0.1100
     24 C15       -15.1472    16.0956   -15.6538 C.ar       1  LIG1  -0.0200
     25 Cl1       -14.9249    17.7981   -15.9102 Cl         1  LIG1  -0.0500
     26 H5        -16.8301    23.5047   -22.6746 H          1  LIG1   0.1100
     27 H6        -17.9042    22.1904   -23.2107 H          1  LIG1   0.0700
     28 H7        -18.1503    22.9475   -21.6187 H          1  LIG1   0.0700
     29 H8        -14.5306    18.2261   -21.2055 H          1  LIG1   0.0900
     30 H9        -15.6556    18.5746   -22.5402 H          1  LIG1   0.0800
     31 H10       -14.5334    19.8334   -21.9704 H          1  LIG1   0.0700
     32 H11       -17.1992    17.6055   -20.8657 H          1  LIG1   0.4200
     33 H12       -20.4678    16.8089   -17.9417 H          1  LIG1   0.1200
     34 H13       -19.7809    18.3686   -17.4280 H          1  LIG1   0.1000
     35 H14       -20.2884    18.1329   -19.1178 H          1  LIG1   0.0900
     36 H15       -16.5669    15.3001   -18.5765 H          1  LIG1   0.1400
     37 H16       -15.8800    16.8598   -18.0628 H          1  LIG1   0.1500
     38 H17       -16.6435    13.4146   -17.0525 H          1  LIG1   0.1500
     39 H18       -15.6444    12.3258   -15.0829 H          1  LIG1   0.1400
     40 H19       -13.6180    14.2023   -12.5448 H          1  LIG1   0.0900
     41 H20       -14.9458    13.0170   -12.5276 H          1  LIG1   0.0800
     42 H21       -13.4674    12.6839   -13.4614 H          1  LIG1   0.0800
     43 H22       -14.0153    16.0659   -13.8393 H          1  LIG1   0.1500
@<TRIPOS>BOND
     1    1    2 1
     2    1   26 1
     3    1   27 1
     4    1   28 1
     5    2    3 1
     6    3    4 2
     7    3    5 1
     8    5    6 1
     9    5    7 1
    10    5    8 1
    11    7   29 1
    12    7   30 1
    13    7   31 1
    14    8    9 am
    15    8   32 1
    16    9   10 2
    17    9   11 1
    18   11   12 1
    19   11   13 1
    20   11   14 1
    21   13   33 1
    22   13   34 1
    23   13   35 1
    24   14   15 1
    25   14   16 1
    26   14   17 1
    27   17   18 1
    28   17   36 1
    29   17   37 1
    30   18   24 ar
    31   18   19 ar
    32   19   20 ar
    33   19   38 1
    34   20   21 ar
    35   20   39 1
    36   21   22 1
    37   21   23 ar
    38   22   40 1
    39   22   41 1
    40   22   42 1
    41   23   24 ar
    42   23   43 1
    43   24   25 1
##########                 Name:     ZINC000428256950
##########          Protonation:                 none
##########               SMILES:   C[N@@H+](CCC1=CC=CS1)CC1=CC=CC(F)=C1C#N
##########            Long Name:   NO_LONG_NAME
##########          FlexRecCode: 1
##########               Number:                10389
##########   Ligand Source File: /nfs/db/export/3D/CG/EDMO/CGEDMO.xci.db2.gz
##########                 Rank:                    1
##########               Setnum:                   80
##########             Matchnum:                    1
##########                Cloud:                    1
##########        Electrostatic:           -39.852608
##########                 Gist:             0.000000
##########        Van der Waals:           -28.584095
##########  Ligand Polar Desolv:            16.501417
########## Ligand Apolar Desolv:            -6.066499
##########      Internal Energy:             0.000000
##########      Receptor Energy:             0.000000
########## Receptor Desolvation:             0.000000
########## Receptor Hydrophobic:             0.000000
##########         Total Energy:           -58.001789
##########        Ligand Charge:             1.000000
##########            Arbitrary:    +999.9990
##########        Ligand Energy:             0.000000

@<TRIPOS>MOLECULE
 ZINC000428256950      none
   35    36     0     0     0



@<TRIPOS>ATOM
      1 C1        -17.7880    16.0388   -19.4101 C.3        1  LIG1  -0.0600
      2 N1        -18.3119    16.6472   -18.1799 N.4        1  LIG1  -0.3900
      3 H1        -18.8455    15.9618   -17.6665 H          1  LIG1   0.4200
      4 C2        -17.1936    17.1179   -17.3518 C.3        1  LIG1  -0.0100
      5 C3        -16.5907    15.9362   -16.5896 C.3        1  LIG1  -0.0600
      6 C4        -15.4434    16.4191   -15.7401 C.2        1  LIG1  -0.2200
      7 C5        -14.6922    15.6481   -14.9524 C.2        1  LIG1  -0.1000
      8 C6        -13.6926    16.3150   -14.2653 C.2        1  LIG1  -0.1400
      9 C7        -13.6321    17.6276   -14.4951 C.2        1  LIG1  -0.1900
     10 S1        -14.8854    18.0841   -15.6415 S.3        1  LIG1   0.1200
     11 C8        -19.1773    17.7829   -18.5254 C.3        1  LIG1   0.0400
     12 C9        -20.5367    17.2738   -18.9302 C.ar       1  LIG1  -0.0900
     13 C10       -21.1612    16.3002   -18.1799 C.ar       1  LIG1  -0.1000
     14 C11       -22.4100    15.8301   -18.5488 C.ar       1  LIG1  -0.0500
     15 C12       -23.0415    16.3319   -19.6712 C.ar       1  LIG1  -0.1200
     16 C13       -22.4284    17.3090   -20.4339 C.ar       1  LIG1   0.1600
     17 F1        -23.0461    17.7997   -21.5307 F          1  LIG1  -0.1100
     18 C14       -21.1690    17.7915   -20.0631 C.ar       1  LIG1  -0.0400
     19 C15       -20.5266    18.8032   -20.8466 C.1        1  LIG1   0.2100
     20 N2        -20.0169    19.6059   -21.4684 N.1        1  LIG1  -0.3600
     21 H2        -17.2117    16.7791   -19.9647 H          1  LIG1   0.1300
     22 H3        -17.1460    15.1960   -19.1537 H          1  LIG1   0.1300
     23 H4        -18.6179    15.6896   -20.0246 H          1  LIG1   0.1300
     24 H5        -16.4319    17.5652   -17.9902 H          1  LIG1   0.1400
     25 H6        -17.5552    17.8617   -16.6417 H          1  LIG1   0.1400
     26 H7        -17.3525    15.4888   -15.9512 H          1  LIG1   0.1000
     27 H8        -16.2292    15.1923   -17.2996 H          1  LIG1   0.1000
     28 H9        -14.8520    14.5842   -14.8576 H          1  LIG1   0.1400
     29 H10       -13.0134    15.8109   -13.5938 H          1  LIG1   0.1500
     30 H11       -12.9201    18.3057   -14.0483 H          1  LIG1   0.1700
     31 H12       -19.2779    18.4392   -17.6610 H          1  LIG1   0.1400
     32 H13       -18.7358    18.3375   -19.3533 H          1  LIG1   0.1500
     33 H14       -20.6743    15.9026   -17.3017 H          1  LIG1   0.1500
     34 H15       -22.8932    15.0669   -17.9566 H          1  LIG1   0.1600
     35 H16       -24.0154    15.9600   -19.9534 H          1  LIG1   0.1600
@<TRIPOS>BOND
     1    1    2 1
     2    1   21 1
     3    1   22 1
     4    1   23 1
     5    2    3 1
     6    2    4 1
     7    2   11 1
     8    4    5 1
     9    4   24 1
    10    4   25 1
    11    5    6 1
    12    5   26 1
    13    5   27 1
    14    6   10 1
    15    6    7 2
    16    7    8 1
    17    7   28 1
    18    8    9 2
    19    8   29 1
    20    9   10 1
    21    9   30 1
    22   11   12 1
    23   11   31 1
    24   11   32 1
    25   12   18 ar
    26   12   13 ar
    27   13   14 ar
    28   13   33 1
    29   14   15 ar
    30   14   34 1
    31   15   16 ar
    32   15   35 1
    33   16   17 1
    34   16   18 ar
    35   18   19 1
    36   19   20 3
##########                 Name:     ZINC000638645623
##########          Protonation:                 none
##########               SMILES:   C[C@H]1CC[C@@H](NC(=O)CCC2=CC(F)=CC=C2F)C[NH2+]1
##########            Long Name:   NO_LONG_NAME
##########          FlexRecCode: 1
##########               Number:                 5493
##########   Ligand Source File: /nfs/db/export/3D/CE/ADRO/CEADRO.xcaa.db2.gz
##########                 Rank:                    1
##########               Setnum:                   56
##########             Matchnum:                    1
##########                Cloud:                    1
##########        Electrostatic:           -47.032639
##########                 Gist:             0.000000
##########        Van der Waals:           -23.835449
##########  Ligand Polar Desolv:            17.260138
########## Ligand Apolar Desolv:            -4.391770
##########      Internal Energy:             0.000000
##########      Receptor Energy:             0.000000
########## Receptor Desolvation:             0.000000
########## Receptor Hydrophobic:             0.000000
##########         Total Energy:           -57.999722
##########        Ligand Charge:             1.000000
##########            Arbitrary:    +999.9990
##########        Ligand Energy:             0.000000

@<TRIPOS>MOLECULE
 ZINC000638645623      none
   41    42     0     0     0



@<TRIPOS>ATOM
      1 C1        -21.9136    15.5777   -18.9759 C.3        1  LIG1  -0.1800
      2 C2        -20.7472    16.5659   -19.0388 C.3        1  LIG1   0.0200
      3 H1        -20.9506    17.3195   -19.7997 H          1  LIG1   0.1400
      4 C3        -20.5826    17.2470   -17.6783 C.3        1  LIG1  -0.1400
      5 C4        -19.4145    18.2350   -17.7463 C.3        1  LIG1  -0.1400
      6 C5        -18.1501    17.4864   -18.1774 C.3        1  LIG1   0.1200
      7 H2        -17.3266    18.1931   -18.2818 H          1  LIG1   0.1300
      8 N1        -17.8077    16.4822   -17.1672 N.am       1  LIG1  -0.7500
      9 C6        -16.9925    16.8063   -16.1440 C.2        1  LIG1   0.5200
     10 O1        -16.5425    17.9292   -16.0596 O.2        1  LIG1  -0.5100
     11 C7        -16.6402    15.7732   -15.1048 C.3        1  LIG1  -0.1400
     12 C8        -15.3781    15.0245   -15.5373 C.3        1  LIG1  -0.0700
     13 C9        -15.0259    13.9915   -14.4981 C.ar       1  LIG1  -0.1000
     14 C10       -14.1947    14.3255   -13.4461 C.ar       1  LIG1  -0.1200
     15 C11       -13.8707    13.3762   -12.4915 C.ar       1  LIG1   0.1000
     16 F1        -13.0577    13.7026   -11.4631 F          1  LIG1  -0.1300
     17 C12       -14.3802    12.0929   -12.5906 C.ar       1  LIG1  -0.1200
     18 C13       -15.2120    11.7591   -13.6427 C.ar       1  LIG1  -0.1200
     19 C14       -15.5397    12.7093   -14.5944 C.ar       1  LIG1   0.0900
     20 F2        -16.3527    12.3829   -15.6228 F          1  LIG1  -0.1300
     21 C15       -18.4048    16.7966   -19.5193 C.3        1  LIG1  -0.0200
     22 N2        -19.5147    15.8460   -19.3812 N.4        1  LIG1  -0.5000
     23 H3        -19.2994    15.1827   -18.6521 H          1  LIG1   0.4200
     24 H4        -19.6461    15.3552   -20.2529 H          1  LIG1   0.4300
     25 H5        -21.7105    14.8240   -18.2151 H          1  LIG1   0.0800
     26 H6        -22.8292    16.1121   -18.7228 H          1  LIG1   0.1100
     27 H7        -22.0318    15.0931   -19.9450 H          1  LIG1   0.0800
     28 H8        -21.4979    17.7823   -17.4261 H          1  LIG1   0.1200
     29 H9        -20.3788    16.4943   -16.9168 H          1  LIG1   0.0900
     30 H10       -19.6403    19.0171   -18.4713 H          1  LIG1   0.1000
     31 H11       -19.2571    18.6813   -16.7644 H          1  LIG1   0.1000
     32 H12       -18.1678    15.5842   -17.2347 H          1  LIG1   0.4000
     33 H13       -16.4611    16.2658   -14.1491 H          1  LIG1   0.1100
     34 H14       -17.4639    15.0669   -15.0008 H          1  LIG1   0.1000
     35 H15       -15.5573    14.5319   -16.4931 H          1  LIG1   0.0900
     36 H16       -14.5544    15.7308   -15.6415 H          1  LIG1   0.0900
     37 H17       -13.7975    15.3267   -13.3686 H          1  LIG1   0.1500
     38 H18       -14.1275    11.3526   -11.8460 H          1  LIG1   0.1500
     39 H19       -15.6092    10.7577   -13.7202 H          1  LIG1   0.1500
     40 H20       -18.6587    17.5451   -20.2697 H          1  LIG1   0.1400
     41 H21       -17.5063    16.2629   -19.8292 H          1  LIG1   0.1400
@<TRIPOS>BOND
     1    1    2 1
     2    1   25 1
     3    1   26 1
     4    1   27 1
     5    2    3 1
     6    2   22 1
     7    2    4 1
     8    4    5 1
     9    4   28 1
    10    4   29 1
    11    5    6 1
    12    5   30 1
    13    5   31 1
    14    6    7 1
    15    6    8 1
    16    6   21 1
    17    8    9 am
    18    8   32 1
    19    9   10 2
    20    9   11 1
    21   11   12 1
    22   11   33 1
    23   11   34 1
    24   12   13 1
    25   12   35 1
    26   12   36 1
    27   13   19 ar
    28   13   14 ar
    29   14   15 ar
    30   14   37 1
    31   15   16 1
    32   15   17 ar
    33   17   18 ar
    34   17   38 1
    35   18   19 ar
    36   18   39 1
    37   19   20 1
    38   21   22 1
    39   21   40 1
    40   21   41 1
    41   22   23 1
    42   22   24 1
##########                 Name:     ZINC000375292554
##########          Protonation:                 none
##########               SMILES:   Fc1ccccc1-c1cnc(C[N@H+]2CC[C@]3(C2)CCCOC3)o1
##########            Long Name:   NO_LONG_NAME
##########          FlexRecCode: 1
##########               Number:                 2644
##########   Ligand Source File: /nfs/db/export/3D/DG/ADMO/DGADMO.xbdw.db2.gz
##########                 Rank:                    1
##########               Setnum:                   36
##########             Matchnum:                    1
##########                Cloud:                    1
##########        Electrostatic:           -40.084614
##########                 Gist:             0.000000
##########        Van der Waals:           -29.093348
##########  Ligand Polar Desolv:            15.291744
########## Ligand Apolar Desolv:            -4.109105
##########      Internal Energy:             0.000000
##########      Receptor Energy:             0.000000
########## Receptor Desolvation:             0.000000
########## Receptor Hydrophobic:             0.000000
##########         Total Energy:           -57.995323
##########        Ligand Charge:             1.000000
##########            Arbitrary:    +999.9990
##########        Ligand Energy:             0.000000

@<TRIPOS>MOLECULE
 ZINC000375292554      none
   45    48     0     0     0



@<TRIPOS>ATOM
      1 F1        -13.3295    16.9366   -13.9888 F          1  LIG1  -0.1300
      2 C1        -13.7284    15.6631   -13.7785 C.ar       1  LIG1   0.1300
      3 C2        -13.1125    14.8952   -12.8089 C.ar       1  LIG1  -0.1500
      4 C3        -13.5203    13.5908   -12.5936 C.ar       1  LIG1  -0.0600
      5 C4        -14.5458    13.0466   -13.3459 C.ar       1  LIG1  -0.1200
      6 C5        -15.1701    13.8019   -14.3176 C.ar       1  LIG1  -0.0500
      7 C6        -14.7694    15.1202   -14.5373 C.ar       1  LIG1  -0.0900
      8 C7        -15.4341    15.9348   -15.5762 C.2        1  LIG1   0.0600
      9 C8        -15.5872    17.2840   -15.5718 C.2        1  LIG1  -0.0100
     10 N1        -16.2418    17.6198   -16.6935 N.2        1  LIG1  -0.4200
     11 C9        -16.4920    16.5380   -17.3763 C.2        1  LIG1   0.1000
     12 C10       -17.2123    16.4856   -18.6990 C.3        1  LIG1   0.1200
     13 N2        -18.6542    16.3293   -18.4655 N.4        1  LIG1  -0.4000
     14 H1        -18.8342    15.4764   -17.9572 H          1  LIG1   0.4300
     15 C11       -19.1804    17.4960   -17.7110 C.3        1  LIG1  -0.0100
     16 C12       -20.6953    17.4797   -18.0406 C.3        1  LIG1  -0.1300
     17 C13       -20.7188    17.0368   -19.5169 C.3        1  LIG1  -0.1100
     18 C14       -19.3817    16.3184   -19.7545 C.3        1  LIG1   0.0000
     19 C15       -20.8347    18.2578   -20.4254 C.3        1  LIG1  -0.1200
     20 C16       -22.1975    18.9219   -20.1995 C.3        1  LIG1  -0.1600
     21 C17       -23.3032    17.8907   -20.4404 C.3        1  LIG1   0.0500
     22 O1        -23.1180    16.7781   -19.5630 O.3        1  LIG1  -0.3700
     23 C18       -21.8838    16.0820   -19.7570 C.3        1  LIG1   0.0700
     24 O2        -16.0010    15.4805   -16.7153 O.3        1  LIG1  -0.1800
     25 H2        -12.3110    15.3138   -12.2183 H          1  LIG1   0.1500
     26 H3        -13.0355    12.9946   -11.8347 H          1  LIG1   0.1500
     27 H4        -14.8585    12.0275   -13.1724 H          1  LIG1   0.1500
     28 H5        -15.9699    13.3747   -14.9041 H          1  LIG1   0.1400
     29 H6        -15.2446    17.9627   -14.8047 H          1  LIG1   0.2000
     30 H7        -17.0313    17.4096   -19.2482 H          1  LIG1   0.1600
     31 H8        -16.8445    15.6398   -19.2798 H          1  LIG1   0.1700
     32 H9        -19.0183    17.3667   -16.6408 H          1  LIG1   0.1300
     33 H10       -18.7205    18.4199   -18.0617 H          1  LIG1   0.1400
     34 H11       -21.2192    16.7590   -17.4128 H          1  LIG1   0.1000
     35 H12       -21.1254    18.4750   -17.9291 H          1  LIG1   0.1200
     36 H13       -18.8038    16.8482   -20.5119 H          1  LIG1   0.1400
     37 H14       -19.5622    15.2919   -20.0738 H          1  LIG1   0.1400
     38 H15       -20.0404    18.9656   -20.1879 H          1  LIG1   0.0800
     39 H16       -20.7486    17.9471   -21.4666 H          1  LIG1   0.0800
     40 H17       -22.2587    19.2892   -19.1750 H          1  LIG1   0.0800
     41 H18       -22.3173    19.7536   -20.8938 H          1  LIG1   0.0900
     42 H19       -24.2740    18.3474   -20.2477 H          1  LIG1   0.1100
     43 H20       -23.2618    17.5486   -21.4745 H          1  LIG1   0.0600
     44 H21       -21.8376    15.7017   -20.7775 H          1  LIG1   0.0700
     45 H22       -21.8220    15.2496   -19.0559 H          1  LIG1   0.1000
@<TRIPOS>BOND
     1    1    2 1
     2    2    7 ar
     3    2    3 ar
     4    3    4 ar
     5    3   25 1
     6    4    5 ar
     7    4   26 1
     8    5    6 ar
     9    5   27 1
    10    6    7 ar
    11    6   28 1
    12    7    8 1
    13    8   24 1
    14    8    9 2
    15    9   10 1
    16    9   29 1
    17   10   11 2
    18   11   12 1
    19   11   24 1
    20   12   13 1
    21   12   30 1
    22   12   31 1
    23   13   14 1
    24   13   18 1
    25   13   15 1
    26   15   16 1
    27   15   32 1
    28   15   33 1
    29   16   17 1
    30   16   34 1
    31   16   35 1
    32   17   23 1
    33   17   18 1
    34   17   19 1
    35   18   36 1
    36   18   37 1
    37   19   20 1
    38   19   38 1
    39   19   39 1
    40   20   21 1
    41   20   40 1
    42   20   41 1
    43   21   22 1
    44   21   42 1
    45   21   43 1
    46   22   23 1
    47   23   44 1
    48   23   45 1
##########                 Name:     ZINC000569686370
##########          Protonation:                 none
##########               SMILES:   C=C(C)COCC[NH2+]C[C@H](O)CC1=CC=C(C(F)(F)F)C=C1
##########            Long Name:   NO_LONG_NAME
##########          FlexRecCode: 1
##########               Number:                 3896
##########   Ligand Source File: /nfs/db/export/3D/DF/EDRO/DFEDRO.xbf.db2.gz
##########                 Rank:                    1
##########               Setnum:                  401
##########             Matchnum:                    1
##########                Cloud:                    1
##########        Electrostatic:           -40.025860
##########                 Gist:             0.000000
##########        Van der Waals:           -29.924902
##########  Ligand Polar Desolv:            16.166620
########## Ligand Apolar Desolv:            -4.219728
##########      Internal Energy:             0.000000
##########      Receptor Energy:             0.000000
########## Receptor Desolvation:             0.000000
########## Receptor Hydrophobic:             0.000000
##########         Total Energy:           -58.003868
##########        Ligand Charge:             1.000000
##########            Arbitrary:    +999.9990
##########        Ligand Energy:             0.000000

@<TRIPOS>MOLECULE
 ZINC000569686370      none
   45    45     0     0     0



@<TRIPOS>ATOM
      1 C1        -22.8283    16.3063   -19.9604 C.2        1  LIG1  -0.1700
      2 C2        -22.4655    16.5324   -18.7221 C.2        1  LIG1  -0.1400
      3 C3        -22.4479    15.4033   -17.7240 C.3        1  LIG1  -0.1200
      4 C4        -22.0659    17.9214   -18.2955 C.3        1  LIG1   0.1000
      5 O1        -20.7193    17.9040   -17.8177 O.3        1  LIG1  -0.4000
      6 C5        -19.7348    17.9170   -18.8535 C.3        1  LIG1   0.0300
      7 C6        -18.3379    17.8967   -18.2295 C.3        1  LIG1   0.0000
      8 N1        -18.1809    16.6809   -17.4201 N.4        1  LIG1  -0.5000
      9 H1        -18.8761    16.6717   -16.6888 H          1  LIG1   0.4400
     10 H2        -18.2992    15.8686   -18.0068 H          1  LIG1   0.4300
     11 C7        -16.8398    16.6612   -16.8211 C.3        1  LIG1  -0.0500
     12 C8        -16.6761    15.3950   -15.9780 C.3        1  LIG1   0.0900
     13 H3        -16.8040    14.5175   -16.6119 H          1  LIG1   0.1300
     14 O2        -17.6607    15.3818   -14.9423 O.3        1  LIG1  -0.5500
     15 C9        -15.2794    15.3745   -15.3542 C.3        1  LIG1  -0.1100
     16 C10       -15.1182    14.1273   -14.5239 C.ar       1  LIG1  -0.0600
     17 C11       -15.7996    12.9749   -14.8684 C.ar       1  LIG1  -0.1000
     18 C12       -15.6518    11.8307   -14.1068 C.ar       1  LIG1  -0.0700
     19 C13       -14.8224    11.8389   -13.0010 C.ar       1  LIG1  -0.1700
     20 C14       -14.6616    10.5917   -12.1704 C.3        1  LIG1   0.5100
     21 F1        -15.4444     9.5666   -12.7120 F          1  LIG1  -0.1700
     22 F2        -13.3180    10.2019   -12.1697 F          1  LIG1  -0.1700
     23 F3        -15.0732    10.8490   -10.8583 F          1  LIG1  -0.1700
     24 C15       -14.1400    12.9908   -12.6572 C.ar       1  LIG1  -0.0700
     25 C16       -14.2849    14.1339   -13.4211 C.ar       1  LIG1  -0.1200
     26 H4        -22.8409    17.1156   -20.6757 H          1  LIG1   0.1000
     27 H5        -23.1105    15.3102   -20.2672 H          1  LIG1   0.1000
     28 H6        -22.1221    15.7804   -16.7546 H          1  LIG1   0.0700
     29 H7        -23.4496    14.9837   -17.6326 H          1  LIG1   0.0700
     30 H8        -21.7592    14.6295   -18.0630 H          1  LIG1   0.0700
     31 H9        -22.1408    18.5984   -19.1464 H          1  LIG1   0.0700
     32 H10       -22.7291    18.2622   -17.5006 H          1  LIG1   0.0700
     33 H11       -19.8627    17.0396   -19.4873 H          1  LIG1   0.0800
     34 H12       -19.8513    18.8191   -19.4541 H          1  LIG1   0.1000
     35 H13       -17.5870    17.9065   -19.0196 H          1  LIG1   0.1500
     36 H14       -18.2102    18.7741   -17.5958 H          1  LIG1   0.1400
     37 H15       -16.0888    16.6712   -17.6111 H          1  LIG1   0.1400
     38 H16       -16.7120    17.5386   -16.1873 H          1  LIG1   0.1400
     39 H17       -18.5719    15.3935   -15.2659 H          1  LIG1   0.3900
     40 H18       -14.5284    15.3846   -16.1442 H          1  LIG1   0.1000
     41 H19       -15.1516    16.2520   -14.7202 H          1  LIG1   0.0900
     42 H20       -16.4476    12.9685   -15.7324 H          1  LIG1   0.1300
     43 H21       -16.1846    10.9306   -14.3755 H          1  LIG1   0.1400
     44 H22       -13.4918    12.9971   -11.7934 H          1  LIG1   0.1400
     45 H23       -13.7518    15.0340   -13.1525 H          1  LIG1   0.1300
@<TRIPOS>BOND
     1    1    2 2
     2    1   26 1
     3    1   27 1
     4    2    3 1
     5    2    4 1
     6    3   28 1
     7    3   29 1
     8    3   30 1
     9    4    5 1
    10    4   31 1
    11    4   32 1
    12    5    6 1
    13    6    7 1
    14    6   33 1
    15    6   34 1
    16    7    8 1
    17    7   35 1
    18    7   36 1
    19    8    9 1
    20    8   10 1
    21    8   11 1
    22   11   12 1
    23   11   37 1
    24   11   38 1
    25   12   13 1
    26   12   14 1
    27   12   15 1
    28   14   39 1
    29   15   16 1
    30   15   40 1
    31   15   41 1
    32   16   25 ar
    33   16   17 ar
    34   17   18 ar
    35   17   42 1
    36   18   19 ar
    37   18   43 1
    38   19   20 1
    39   19   24 ar
    40   20   21 1
    41   20   22 1
    42   20   23 1
    43   24   25 ar
    44   24   44 1
    45   25   45 1
##########                 Name:     ZINC000348254305
##########          Protonation:                 none
##########               SMILES:   C[C@@H](CN1C=CC=N1)[NH2+]C[C@@](C)(CO)C1=CC=CC=C1
##########            Long Name:   NO_LONG_NAME
##########          FlexRecCode: 1
##########               Number:                 7671
##########   Ligand Source File: /nfs/db/export/3D/CD/ADRO/CDADRO.xcow.db2.gz
##########                 Rank:                    1
##########               Setnum:                  176
##########             Matchnum:                    1
##########                Cloud:                    1
##########        Electrostatic:           -42.784447
##########                 Gist:             0.000000
##########        Van der Waals:           -24.095201
##########  Ligand Polar Desolv:            11.463610
########## Ligand Apolar Desolv:            -2.579079
##########      Internal Energy:             0.000000
##########      Receptor Energy:             0.000000
########## Receptor Desolvation:             0.000000
########## Receptor Hydrophobic:             0.000000
##########         Total Energy:           -57.995117
##########        Ligand Charge:             1.000000
##########            Arbitrary:    +999.9990
##########        Ligand Energy:             0.000000

@<TRIPOS>MOLECULE
 ZINC000348254305      none
   44    45     0     0     0



@<TRIPOS>ATOM
      1 C1        -18.1729    16.3989   -15.0490 C.3        1  LIG1  -0.1800
      2 C2        -17.4964    16.8977   -16.3276 C.3        1  LIG1   0.0200
      3 H1        -17.2460    17.9528   -16.2181 H          1  LIG1   0.1400
      4 C3        -16.2188    16.0934   -16.5757 C.3        1  LIG1   0.1100
      5 N1        -15.1426    16.6124   -15.7280 N.pl3      1  LIG1  -0.4000
      6 C4        -14.2746    15.8735   -15.0056 C.2        1  LIG1   0.0800
      7 C5        -13.4417    16.7257   -14.3645 C.2        1  LIG1  -0.2600
      8 C6        -13.8133    18.0300   -14.7068 C.2        1  LIG1   0.0900
      9 N2        -14.8290    17.9631   -15.5288 N.2        1  LIG1  -0.3600
     10 N3        -18.4112    16.7268   -17.4641 N.4        1  LIG1  -0.5100
     11 H2        -18.3873    15.7667   -17.7738 H          1  LIG1   0.4300
     12 H3        -19.3495    16.9650   -17.1795 H          1  LIG1   0.4200
     13 C7        -17.9951    17.6067   -18.5643 C.3        1  LIG1   0.0000
     14 C8        -18.9480    17.4287   -19.7481 C.3        1  LIG1  -0.0300
     15 C9        -18.9116    15.9729   -20.2176 C.3        1  LIG1  -0.1600
     16 C10       -20.3707    17.7898   -19.3163 C.3        1  LIG1   0.0700
     17 O1        -20.7754    16.9337   -18.2461 O.3        1  LIG1  -0.5700
     18 C11       -18.5211    18.3313   -20.8768 C.ar       1  LIG1  -0.0700
     19 C12       -17.2645    18.1919   -21.4357 C.ar       1  LIG1  -0.1200
     20 C13       -16.8729    19.0199   -22.4711 C.ar       1  LIG1  -0.1100
     21 C14       -17.7377    19.9875   -22.9473 C.ar       1  LIG1  -0.1100
     22 C15       -18.9948    20.1258   -22.3894 C.ar       1  LIG1  -0.1100
     23 C16       -19.3881    19.2949   -21.3569 C.ar       1  LIG1  -0.1100
     24 H4        -18.4233    15.3437   -15.1584 H          1  LIG1   0.1100
     25 H5        -17.4942    16.5258   -14.2057 H          1  LIG1   0.0900
     26 H6        -19.0831    16.9719   -14.8722 H          1  LIG1   0.0900
     27 H7        -16.3969    15.0452   -16.3357 H          1  LIG1   0.1400
     28 H8        -15.9311    16.1824   -17.6233 H          1  LIG1   0.1100
     29 H9        -14.2496    14.7954   -14.9490 H          1  LIG1   0.1900
     30 H10       -12.6331    16.4478   -13.7045 H          1  LIG1   0.1600
     31 H11       -13.3403    18.9356   -14.3569 H          1  LIG1   0.2000
     32 H12       -18.0209    18.6436   -18.2298 H          1  LIG1   0.1500
     33 H13       -16.9815    17.3492   -18.8720 H          1  LIG1   0.1300
     34 H14       -19.5905    15.8460   -21.0609 H          1  LIG1   0.0600
     35 H15       -17.8981    15.7156   -20.5251 H          1  LIG1   0.0900
     36 H16       -19.2203    15.3200   -19.4012 H          1  LIG1   0.0800
     37 H17       -20.3966    18.8269   -18.9817 H          1  LIG1   0.0800
     38 H18       -21.0495    17.6631   -20.1596 H          1  LIG1   0.0400
     39 H19       -20.7761    15.9937   -18.4731 H          1  LIG1   0.4000
     40 H20       -16.5885    17.4364   -21.0633 H          1  LIG1   0.1200
     41 H21       -15.8908    18.9115   -22.9073 H          1  LIG1   0.1300
     42 H22       -17.4324    20.6344   -23.7564 H          1  LIG1   0.1300
     43 H23       -19.6706    20.8815   -22.7617 H          1  LIG1   0.1300
     44 H24       -20.3700    19.4033   -20.9208 H          1  LIG1   0.1200
@<TRIPOS>BOND
     1    1    2 1
     2    1   24 1
     3    1   25 1
     4    1   26 1
     5    2    3 1
     6    2    4 1
     7    2   10 1
     8    4    5 1
     9    4   27 1
    10    4   28 1
    11    5    9 1
    12    5    6 1
    13    6    7 2
    14    6   29 1
    15    7    8 1
    16    7   30 1
    17    8    9 2
    18    8   31 1
    19   10   11 1
    20   10   12 1
    21   10   13 1
    22   13   14 1
    23   13   32 1
    24   13   33 1
    25   14   15 1
    26   14   16 1
    27   14   18 1
    28   15   34 1
    29   15   35 1
    30   15   36 1
    31   16   17 1
    32   16   37 1
    33   16   38 1
    34   17   39 1
    35   18   23 ar
    36   18   19 ar
    37   19   20 ar
    38   19   40 1
    39   20   21 ar
    40   20   41 1
    41   21   22 ar
    42   21   42 1
    43   22   23 ar
    44   22   43 1
    45   23   44 1
##########                 Name:     ZINC000370768181
##########          Protonation:                 none
##########               SMILES:   O=[N+]([O-])C1=CC=CC=C1/C=C/C[NH2+][C@@H]1CCCN(C2=CC=NC=N2)C1
##########            Long Name:   NO_LONG_NAME
##########          FlexRecCode: 1
##########               Number:                 7908
##########   Ligand Source File: /nfs/db/export/3D/EF/BDRO/EFBDRO.xch.db2.gz
##########                 Rank:                    1
##########               Setnum:                   49
##########             Matchnum:                    1
##########                Cloud:                    1
##########        Electrostatic:           -44.184021
##########                 Gist:             0.000000
##########        Van der Waals:           -32.117802
##########  Ligand Polar Desolv:            23.825279
########## Ligand Apolar Desolv:            -5.522413
##########      Internal Energy:             0.000000
##########      Receptor Energy:             0.000000
########## Receptor Desolvation:             0.000000
########## Receptor Hydrophobic:             0.000000
##########         Total Energy:           -57.998955
##########        Ligand Charge:             1.000000
##########            Arbitrary:    +999.9990
##########        Ligand Energy:             0.000000

@<TRIPOS>MOLECULE
 ZINC000370768181      none
   47    49     0     0     0



@<TRIPOS>ATOM
      1 O1        -13.9271    16.8927   -14.5027 O.2        1  LIG1  -0.1300
      2 N1        -13.6131    16.0025   -13.7330 N.pl3      1  LIG1   0.0200
      3 O2        -12.8581    16.2366   -12.8063 O.2        1  LIG1  -0.1600
      4 C1        -14.1539    14.6375   -13.9201 C.ar       1  LIG1  -0.0200
      5 C2        -13.8039    13.6295   -13.0460 C.ar       1  LIG1  -0.0600
      6 C3        -14.3086    12.3529   -13.2196 C.ar       1  LIG1  -0.0900
      7 C4        -15.1664    12.0787   -14.2694 C.ar       1  LIG1  -0.0700
      8 C5        -15.5240    13.0781   -15.1512 C.ar       1  LIG1  -0.1000
      9 C6        -15.0236    14.3689   -14.9780 C.ar       1  LIG1  -0.0300
     10 C7        -15.4029    15.4444   -15.9184 C.2        1  LIG1  -0.0400
     11 C8        -16.6760    15.7885   -16.0531 C.2        1  LIG1  -0.2200
     12 C9        -17.0627    16.8851   -17.0119 C.3        1  LIG1   0.0300
     13 N2        -17.9800    16.3480   -18.0258 N.4        1  LIG1  -0.5000
     14 H1        -17.5235    15.6040   -18.5319 H          1  LIG1   0.4300
     15 H2        -18.8077    15.9887   -17.5739 H          1  LIG1   0.4300
     16 C10       -18.3570    17.4166   -18.9604 C.3        1  LIG1   0.0300
     17 H3        -18.5152    18.3434   -18.4088 H          1  LIG1   0.1600
     18 C11       -19.6471    17.0282   -19.6879 C.3        1  LIG1  -0.1400
     19 C12       -20.0000    18.1193   -20.7025 C.3        1  LIG1  -0.1100
     20 C13       -18.8343    18.2984   -21.6779 C.3        1  LIG1   0.0500
     21 N3        -17.6243    18.6700   -20.9335 N.pl3      1  LIG1  -0.4900
     22 C14       -16.5821    18.9672   -21.7965 C.ar       1  LIG1   0.3400
     23 C15       -15.9888    20.2311   -21.7831 C.ar       1  LIG1  -0.2600
     24 C16       -14.9532    20.4782   -22.6631 C.ar       1  LIG1   0.1700
     25 N4        -14.5595    19.5159   -23.4851 N.ar       1  LIG1  -0.5100
     26 C17       -15.1404    18.3331   -23.4734 C.ar       1  LIG1   0.3200
     27 N5        -16.1275    18.0518   -22.6474 N.ar       1  LIG1  -0.5000
     28 C18       -17.2385    17.6169   -19.9856 C.3        1  LIG1   0.0400
     29 H4        -13.1342    13.8370   -12.2244 H          1  LIG1   0.1600
     30 H5        -14.0311    11.5670   -12.5326 H          1  LIG1   0.1600
     31 H6        -15.5570    11.0802   -14.3995 H          1  LIG1   0.1500
     32 H7        -16.1934    12.8627   -15.9708 H          1  LIG1   0.1500
     33 H8        -14.6429    15.9497   -16.4958 H          1  LIG1   0.1400
     34 H9        -17.4360    15.2833   -15.4757 H          1  LIG1   0.1400
     35 H10       -17.5559    17.6887   -16.4650 H          1  LIG1   0.1500
     36 H11       -16.1686    17.2730   -17.4998 H          1  LIG1   0.1300
     37 H12       -19.5013    16.0811   -20.2073 H          1  LIG1   0.0900
     38 H13       -20.4566    16.9274   -18.9650 H          1  LIG1   0.1000
     39 H14       -20.8942    17.8282   -21.2538 H          1  LIG1   0.1000
     40 H15       -20.1838    19.0574   -20.1789 H          1  LIG1   0.0900
     41 H16       -18.6600    17.3638   -22.2109 H          1  LIG1   0.0600
     42 H17       -19.0767    19.0844   -22.3929 H          1  LIG1   0.1000
     43 H18       -16.3309    20.9960   -21.1021 H          1  LIG1   0.1400
     44 H19       -14.4704    21.4442   -22.6814 H          1  LIG1   0.1700
     45 H20       -14.7945    17.5715   -24.1567 H          1  LIG1   0.2100
     46 H21       -16.3221    17.9080   -19.4723 H          1  LIG1   0.1000
     47 H22       -17.0716    16.6851   -20.5261 H          1  LIG1   0.0700
@<TRIPOS>BOND
     1    1    2 2
     2    2    3 2
     3    2    4 1
     4    4    9 ar
     5    4    5 ar
     6    5    6 ar
     7    5   29 1
     8    6    7 ar
     9    6   30 1
    10    7    8 ar
    11    7   31 1
    12    8    9 ar
    13    8   32 1
    14    9   10 1
    15   10   11 2
    16   10   33 1
    17   11   12 1
    18   11   34 1
    19   12   13 1
    20   12   35 1
    21   12   36 1
    22   13   14 1
    23   13   15 1
    24   13   16 1
    25   16   17 1
    26   16   28 1
    27   16   18 1
    28   18   19 1
    29   18   37 1
    30   18   38 1
    31   19   20 1
    32   19   39 1
    33   19   40 1
    34   20   21 1
    35   20   41 1
    36   20   42 1
    37   21   22 1
    38   21   28 1
    39   22   27 ar
    40   22   23 ar
    41   23   24 ar
    42   23   43 1
    43   24   25 ar
    44   24   44 1
    45   25   26 ar
    46   26   27 ar
    47   26   45 1
    48   28   46 1
    49   28   47 1
##########                 Name:     ZINC000331563561
##########          Protonation:                 none
##########               SMILES:   Cc1nc(CNC(=O)C(=O)N2C[C@@H]3CCC[C@H]([NH3+])[C@@H]3C2)sc1C
##########            Long Name:   NO_LONG_NAME
##########          FlexRecCode: 1
##########               Number:                10444
##########   Ligand Source File: /nfs/db/export/3D/EC/ADRO/ECADRO.xbgu.db2.gz
##########                 Rank:                    1
##########               Setnum:                  384
##########             Matchnum:                    1
##########                Cloud:                    1
##########        Electrostatic:           -51.209625
##########                 Gist:             0.000000
##########        Van der Waals:           -27.776461
##########  Ligand Polar Desolv:            22.162279
########## Ligand Apolar Desolv:            -1.180971
##########      Internal Energy:             0.000000
##########      Receptor Energy:             0.000000
########## Receptor Desolvation:             0.000000
########## Receptor Hydrophobic:             0.000000
##########         Total Energy:           -58.004776
##########        Ligand Charge:             1.000000
##########            Arbitrary:    +999.9990
##########        Ligand Energy:             0.000000

@<TRIPOS>MOLECULE
 ZINC000331563561      none
   48    50     0     0     0



@<TRIPOS>ATOM
      1 C1        -13.3982    13.6518   -13.1691 C.3        1  LIG1  -0.0800
      2 C2        -14.2288    14.4490   -14.1417 C.2        1  LIG1   0.0600
      3 C3        -15.2609    13.9253   -14.8097 C.2        1  LIG1  -0.2100
      4 C4        -15.7526    12.5043   -14.7097 C.3        1  LIG1  -0.0800
      5 S1        -15.9453    15.1898   -15.8282 S.3        1  LIG1   0.1500
      6 C5        -14.7756    16.2969   -15.2544 C.2        1  LIG1   0.0000
      7 C6        -14.6697    17.7383   -15.6812 C.3        1  LIG1   0.2000
      8 N1        -14.8016    17.8272   -17.1376 N.am       1  LIG1  -0.6900
      9 C7        -15.3326    18.9310   -17.7000 C.2        1  LIG1   0.5100
     10 O1        -15.7015    19.8511   -17.0000 O.2        1  LIG1  -0.5100
     11 C8        -15.4672    19.0218   -19.1856 C.2        1  LIG1   0.5300
     12 O2        -14.5647    19.4883   -19.8492 O.2        1  LIG1  -0.5100
     13 N2        -16.5909    18.5854   -19.7884 N.am       1  LIG1  -0.5900
     14 C9        -16.8522    18.6095   -21.2365 C.3        1  LIG1   0.1000
     15 C10       -18.2778    18.0303   -21.4495 C.3        1  LIG1  -0.0800
     16 H1        -18.3562    17.4491   -22.3682 H          1  LIG1   0.1200
     17 C11       -19.2354    19.2235   -21.4406 C.3        1  LIG1  -0.1300
     18 C12       -20.6751    18.7693   -21.2176 C.3        1  LIG1  -0.1200
     19 C13       -20.7643    18.1024   -19.8398 C.3        1  LIG1  -0.1500
     20 C14       -19.8931    16.8470   -19.8626 C.3        1  LIG1   0.0500
     21 H2        -20.2801    16.1596   -20.6148 H          1  LIG1   0.1500
     22 N3        -19.9530    16.1987   -18.5457 N.4        1  LIG1  -0.6400
     23 H3        -20.9075    15.9464   -18.3382 H          1  LIG1   0.4400
     24 H4        -19.3796    15.3685   -18.5533 H          1  LIG1   0.4400
     25 H5        -19.6126    16.8360   -17.8413 H          1  LIG1   0.4300
     26 C15       -18.4503    17.1577   -20.1924 C.3        1  LIG1  -0.1300
     27 H6        -17.9010    16.2245   -20.3177 H          1  LIG1   0.1100
     28 C16       -17.7626    17.9978   -19.1051 C.3        1  LIG1   0.0900
     29 N4        -14.0001    15.7211   -14.3989 N.2        1  LIG1  -0.4400
     30 H7        -13.7743    12.6298   -13.1227 H          1  LIG1   0.0800
     31 H8        -12.3599    13.6422   -13.5007 H          1  LIG1   0.0800
     32 H9        -13.4597    14.1068   -12.1806 H          1  LIG1   0.0800
     33 H10       -16.6087    12.3687   -15.3706 H          1  LIG1   0.0800
     34 H11       -14.9549    11.8222   -15.0040 H          1  LIG1   0.0700
     35 H12       -16.0497    12.2941   -13.6822 H          1  LIG1   0.0900
     36 H13       -15.4636    18.3165   -15.2085 H          1  LIG1   0.1000
     37 H14       -13.7010    18.1364   -15.3792 H          1  LIG1   0.1100
     38 H15       -14.5066    17.0918   -17.6972 H          1  LIG1   0.4200
     39 H16       -16.8078    19.6342   -21.6057 H          1  LIG1   0.1000
     40 H17       -16.1188    17.9940   -21.7573 H          1  LIG1   0.0900
     41 H18       -18.9480    19.9068   -20.6414 H          1  LIG1   0.0700
     42 H19       -19.1682    19.7435   -22.3962 H          1  LIG1   0.0900
     43 H20       -21.3414    19.6311   -21.2521 H          1  LIG1   0.0900
     44 H21       -20.9582    18.0547   -21.9903 H          1  LIG1   0.0800
     45 H22       -20.4014    18.7885   -19.0746 H          1  LIG1   0.0900
     46 H23       -21.7984    17.8291   -19.6295 H          1  LIG1   0.1000
     47 H24       -17.4554    17.3660   -18.2716 H          1  LIG1   0.0900
     48 H25       -18.4247    18.7919   -18.7600 H          1  LIG1   0.0800
@<TRIPOS>BOND
     1    1    2 1
     2    1   30 1
     3    1   31 1
     4    1   32 1
     5    2   29 1
     6    2    3 2
     7    3    4 1
     8    3    5 1
     9    4   33 1
    10    4   34 1
    11    4   35 1
    12    5    6 1
    13    6    7 1
    14    6   29 2
    15    7    8 1
    16    7   36 1
    17    7   37 1
    18    8    9 am
    19    8   38 1
    20    9   10 2
    21    9   11 1
    22   11   12 2
    23   11   13 am
    24   13   28 1
    25   13   14 1
    26   14   15 1
    27   14   39 1
    28   14   40 1
    29   15   16 1
    30   15   26 1
    31   15   17 1
    32   17   18 1
    33   17   41 1
    34   17   42 1
    35   18   19 1
    36   18   43 1
    37   18   44 1
    38   19   20 1
    39   19   45 1
    40   19   46 1
    41   20   21 1
    42   20   22 1
    43   20   26 1
    44   22   23 1
    45   22   24 1
    46   22   25 1
    47   26   27 1
    48   26   28 1
    49   28   47 1
    50   28   48 1
##########                 Name:     ZINC000663410642
##########          Protonation:                 none
##########               SMILES:   CCN(CCCNC1=CC(C(F)(F)F)=CC(C)=[NH+]1)S(C)(=O)=O
##########            Long Name:   NO_LONG_NAME
##########          FlexRecCode: 1
##########               Number:                 8811
##########   Ligand Source File: /nfs/db/export/3D/EE/ADMO/EEADMO.xayn.db2.gz
##########                 Rank:                    1
##########               Setnum:                   51
##########             Matchnum:                    1
##########                Cloud:                    1
##########        Electrostatic:           -42.184437
##########                 Gist:             0.000000
##########        Van der Waals:           -28.018837
##########  Ligand Polar Desolv:            15.366357
########## Ligand Apolar Desolv:            -3.160650
##########      Internal Energy:             0.000000
##########      Receptor Energy:             0.000000
########## Receptor Desolvation:             0.000000
########## Receptor Hydrophobic:             0.000000
##########         Total Energy:           -57.997570
##########        Ligand Charge:             1.000000
##########            Arbitrary:    +999.9990
##########        Ligand Energy:             0.000000

@<TRIPOS>MOLECULE
 ZINC000663410642      none
   43    43     0     0     0



@<TRIPOS>ATOM
      1 C1        -18.4575    17.8621   -21.9117 C.3        1  LIG1  -0.1800
      2 C2        -18.3161    18.8330   -20.7376 C.3        1  LIG1   0.1100
      3 N1        -16.8969    19.0169   -20.4241 N.pl3      1  LIG1  -1.0000
      4 C3        -16.2404    18.1352   -19.4557 C.3        1  LIG1   0.1300
      5 C4        -16.3647    18.7352   -18.0538 C.3        1  LIG1  -0.1600
      6 C5        -15.6791    17.8144   -17.0424 C.3        1  LIG1   0.1000
      7 N2        -16.3199    16.4972   -17.0684 N.pl3      1  LIG1  -0.6900
      8 C6        -15.8655    15.4865   -16.2291 C.ar       1  LIG1   0.4600
      9 C7        -14.8058    15.7343   -15.3628 C.ar       1  LIG1  -0.1600
     10 C8        -14.3641    14.7196   -14.5327 C.ar       1  LIG1  -0.0200
     11 C9        -13.2194    14.9474   -13.5795 C.3        1  LIG1   0.5100
     12 F1        -12.7591    16.2621   -13.7089 F          1  LIG1  -0.1500
     13 F2        -13.6553    14.7330   -12.2675 F          1  LIG1  -0.1600
     14 F3        -12.1809    14.0583   -13.8770 F          1  LIG1  -0.1600
     15 C10       -14.9995    13.4868   -14.5972 C.ar       1  LIG1  -0.1400
     16 C11       -16.0455    13.3106   -15.4810 C.ar       1  LIG1   0.2100
     17 C12       -16.7392    11.9748   -15.5556 C.3        1  LIG1  -0.1400
     18 N3        -16.4490    14.2981   -16.2574 N.ar       1  LIG1  -0.5000
     19 H1        -17.1865    14.1477   -16.8694 H          1  LIG1   0.4500
     20 S1        -16.0347    20.2214   -21.1643 S.o2       1  LIG1   2.6100
     21 C13       -15.3696    19.4464   -22.6635 C.3        1  LIG1  -0.6700
     22 O1        -17.0122    21.1972   -21.4992 O.2        1  LIG1  -0.9600
     23 O2        -14.9884    20.5167   -20.2494 O.2        1  LIG1  -0.9500
     24 H2        -19.5134    17.7253   -22.1449 H          1  LIG1   0.0700
     25 H3        -17.9425    18.2677   -22.7825 H          1  LIG1   0.0600
     26 H4        -18.0172    16.9016   -21.6439 H          1  LIG1   0.0600
     27 H5        -18.7565    19.7935   -21.0054 H          1  LIG1   0.0800
     28 H6        -18.8310    18.4274   -19.8667 H          1  LIG1   0.1000
     29 H7        -16.7171    17.1552   -19.4751 H          1  LIG1   0.0900
     30 H8        -15.1866    18.0318   -19.7146 H          1  LIG1   0.0900
     31 H9        -15.8880    19.7151   -18.0344 H          1  LIG1   0.0800
     32 H10       -17.4185    18.8385   -17.7950 H          1  LIG1   0.0900
     33 H11       -14.6254    17.7109   -17.3012 H          1  LIG1   0.1000
     34 H12       -15.7676    18.2418   -16.0436 H          1  LIG1   0.1000
     35 H13       -17.0612    16.3303   -17.6714 H          1  LIG1   0.4200
     36 H14       -14.3341    16.7055   -15.3389 H          1  LIG1   0.1900
     37 H15       -14.6786    12.6739   -13.9628 H          1  LIG1   0.1900
     38 H16       -17.5332    12.0188   -16.3010 H          1  LIG1   0.1200
     39 H17       -16.0188    11.2065   -15.8367 H          1  LIG1   0.1000
     40 H18       -17.1672    11.7329   -14.5827 H          1  LIG1   0.1200
     41 H19       -14.7810    20.1763   -23.2193 H          1  LIG1   0.1300
     42 H20       -14.7359    18.6039   -22.3865 H          1  LIG1   0.1300
     43 H21       -16.1921    19.0933   -23.2856 H          1  LIG1   0.1300
@<TRIPOS>BOND
     1    1    2 1
     2    1   24 1
     3    1   25 1
     4    1   26 1
     5    2    3 1
     6    2   27 1
     7    2   28 1
     8    3    4 1
     9    3   20 1
    10    4    5 1
    11    4   29 1
    12    4   30 1
    13    5    6 1
    14    5   31 1
    15    5   32 1
    16    6    7 1
    17    6   33 1
    18    6   34 1
    19    7    8 1
    20    7   35 1
    21    8   18 ar
    22    8    9 ar
    23    9   10 ar
    24    9   36 1
    25   10   11 1
    26   10   15 ar
    27   11   12 1
    28   11   13 1
    29   11   14 1
    30   15   16 ar
    31   15   37 1
    32   16   17 1
    33   16   18 ar
    34   17   38 1
    35   17   39 1
    36   17   40 1
    37   18   19 1
    38   20   21 1
    39   20   22 2
    40   20   23 2
    41   21   41 1
    42   21   42 1
    43   21   43 1
##########                 Name:     ZINC000369112902
##########          Protonation:                 none
##########               SMILES:   [NH3+][C@@H]1CN(C(=O)C2=CN=C(C3=CC=NC=C3)S2)C[C@H]1C1=CC=CC=C1
##########            Long Name:   NO_LONG_NAME
##########          FlexRecCode: 1
##########               Number:                20283
##########   Ligand Source File: /nfs/db/export/3D/FF/ADRO/FFADRO.xaqj.db2.gz
##########                 Rank:                    1
##########               Setnum:                  133
##########             Matchnum:                    1
##########                Cloud:                    1
##########        Electrostatic:           -45.878494
##########                 Gist:             0.000000
##########        Van der Waals:           -34.401733
##########  Ligand Polar Desolv:            25.167267
########## Ligand Apolar Desolv:            -2.888372
##########      Internal Energy:             0.000000
##########      Receptor Energy:             0.000000
########## Receptor Desolvation:             0.000000
########## Receptor Hydrophobic:             0.000000
##########         Total Energy:           -58.001335
##########        Ligand Charge:             1.000000
##########            Arbitrary:    +999.9990
##########        Ligand Energy:             0.000000

@<TRIPOS>MOLECULE
 ZINC000369112902      none
   44    47     0     0     0



@<TRIPOS>ATOM
      1 N1        -18.8810    16.2640   -18.8729 N.4        1  LIG1  -0.6300
      2 H1        -19.2696    16.6101   -19.7374 H          1  LIG1   0.4400
      3 H2        -19.5171    16.4620   -18.1151 H          1  LIG1   0.4400
      4 H3        -18.7407    15.2672   -18.9425 H          1  LIG1   0.4400
      5 C1        -17.5934    16.9229   -18.6164 C.3        1  LIG1   0.0100
      6 H4        -16.8911    16.7076   -19.4217 H          1  LIG1   0.1600
      7 C2        -17.0146    16.4612   -17.2617 C.3        1  LIG1   0.1000
      8 N2        -16.3794    17.6730   -16.6938 N.am       1  LIG1  -0.6200
      9 C3        -15.2151    17.7577   -16.0200 C.2        1  LIG1   0.6300
     10 O1        -14.5496    18.7746   -16.0808 O.2        1  LIG1  -0.5000
     11 C4        -14.7504    16.6241   -15.2134 C.2        1  LIG1  -0.3200
     12 C5        -13.5968    16.5761   -14.4774 C.2        1  LIG1   0.1600
     13 N3        -13.4147    15.4470   -13.8469 N.2        1  LIG1  -0.4700
     14 C6        -14.3274    14.5281   -13.9903 C.2        1  LIG1   0.1000
     15 C7        -14.2876    13.1941   -13.3534 C.ar       1  LIG1   0.0000
     16 C8        -15.3113    12.2640   -13.5673 C.ar       1  LIG1  -0.1500
     17 C9        -15.2336    11.0306   -12.9534 C.ar       1  LIG1   0.1100
     18 N4        -14.2138    10.7246   -12.1747 N.ar       1  LIG1  -0.4700
     19 C10       -13.2283    11.5711   -11.9465 C.ar       1  LIG1   0.1100
     20 C11       -13.2223    12.8242   -12.5245 C.ar       1  LIG1  -0.1200
     21 S1        -15.5803    15.0829   -15.0119 S.3        1  LIG1   0.2100
     22 C12       -17.3138    18.7707   -17.0347 C.3        1  LIG1   0.0900
     23 C13       -17.7903    18.4462   -18.4696 C.3        1  LIG1  -0.0600
     24 H5        -18.8426    18.7050   -18.5871 H          1  LIG1   0.1200
     25 C14       -16.9533    19.1877   -19.4798 C.ar       1  LIG1  -0.1200
     26 C15       -15.6615    19.5646   -19.1639 C.ar       1  LIG1  -0.1100
     27 C16       -14.8938    20.2448   -20.0906 C.ar       1  LIG1  -0.1100
     28 C17       -15.4176    20.5476   -21.3335 C.ar       1  LIG1  -0.1000
     29 C18       -16.7093    20.1700   -21.6497 C.ar       1  LIG1  -0.1100
     30 C19       -17.4755    19.4860   -20.7245 C.ar       1  LIG1  -0.1000
     31 H6        -17.8124    16.1084   -16.6079 H          1  LIG1   0.1000
     32 H7        -16.2718    15.6779   -17.4129 H          1  LIG1   0.1200
     33 H8        -12.8992    17.3988   -14.4234 H          1  LIG1   0.2000
     34 H9        -16.1497    12.5081   -14.2030 H          1  LIG1   0.1400
     35 H10       -16.0187    10.3062   -13.1123 H          1  LIG1   0.1700
     36 H11       -12.4130    11.2781   -11.3017 H          1  LIG1   0.1700
     37 H12       -12.4119    13.5122   -12.3333 H          1  LIG1   0.1500
     38 H13       -18.1583    18.7788   -16.3455 H          1  LIG1   0.1000
     39 H14       -16.7968    19.7301   -17.0149 H          1  LIG1   0.1000
     40 H15       -15.2521    19.3280   -18.1929 H          1  LIG1   0.1200
     41 H16       -13.8846    20.5399   -19.8434 H          1  LIG1   0.1300
     42 H17       -14.8181    21.0797   -22.0572 H          1  LIG1   0.1300
     43 H18       -17.1188    20.4069   -22.6206 H          1  LIG1   0.1300
     44 H19       -18.4847    19.1909   -20.9716 H          1  LIG1   0.1300
@<TRIPOS>BOND
     1    1    2 1
     2    1    3 1
     3    1    4 1
     4    1    5 1
     5    5    6 1
     6    5   23 1
     7    5    7 1
     8    7    8 1
     9    7   31 1
    10    7   32 1
    11    8    9 am
    12    8   22 1
    13    9   10 2
    14    9   11 1
    15   11   21 1
    16   11   12 2
    17   12   13 1
    18   12   33 1
    19   13   14 2
    20   14   15 1
    21   14   21 1
    22   15   20 ar
    23   15   16 ar
    24   16   17 ar
    25   16   34 1
    26   17   18 ar
    27   17   35 1
    28   18   19 ar
    29   19   20 ar
    30   19   36 1
    31   20   37 1
    32   22   23 1
    33   22   38 1
    34   22   39 1
    35   23   24 1
    36   23   25 1
    37   25   30 ar
    38   25   26 ar
    39   26   27 ar
    40   26   40 1
    41   27   28 ar
    42   27   41 1
    43   28   29 ar
    44   28   42 1
    45   29   30 ar
    46   29   43 1
    47   30   44 1
##########                 Name:     ZINC000346659834
##########          Protonation:                 none
##########               SMILES:   COCCN(C)C1=CC=C(CNC2=[NH+]C3=CC=CC=C3N2)C=N1
##########            Long Name:   NO_LONG_NAME
##########          FlexRecCode: 1
##########               Number:                 1045
##########   Ligand Source File: /nfs/db/export/3D/DE/ADMO/DEADMO.xafr.db2.gz
##########                 Rank:                    1
##########               Setnum:                  200
##########             Matchnum:                    1
##########                Cloud:                    1
##########        Electrostatic:           -33.982098
##########                 Gist:             0.000000
##########        Van der Waals:           -32.028584
##########  Ligand Polar Desolv:            13.050601
########## Ligand Apolar Desolv:            -5.036136
##########      Internal Energy:             0.000000
##########      Receptor Energy:             0.000000
########## Receptor Desolvation:             0.000000
########## Receptor Hydrophobic:             0.000000
##########         Total Energy:           -57.996216
##########        Ligand Charge:             1.000000
##########            Arbitrary:    +999.9990
##########        Ligand Energy:             0.000000

@<TRIPOS>MOLECULE
 ZINC000346659834      none
   45    47     0     0     0



@<TRIPOS>ATOM
      1 C1        -20.0318    20.2906   -22.1439 C.3        1  LIG1   0.0300
      2 O1        -18.6214    20.3795   -21.9314 O.3        1  LIG1  -0.3900
      3 C2        -17.8982    20.9088   -23.0443 C.3        1  LIG1   0.0400
      4 C3        -16.4068    20.9580   -22.7065 C.3        1  LIG1   0.1200
      5 N1        -15.9278    19.6053   -22.4115 N.pl3      1  LIG1  -0.6000
      6 C4        -15.4055    18.7620   -23.4896 C.3        1  LIG1   0.0900
      7 C5        -15.9693    19.1220   -21.1090 C.ar       1  LIG1   0.4300
      8 C6        -16.4667    19.9278   -20.0903 C.ar       1  LIG1  -0.2100
      9 C7        -16.5026    19.4340   -18.7985 C.ar       1  LIG1  -0.0100
     10 C8        -16.0380    18.1460   -18.5683 C.ar       1  LIG1  -0.2600
     11 C9        -16.0585    17.5667   -17.1773 C.3        1  LIG1   0.1700
     12 N2        -16.5756    16.1969   -17.2264 N.pl3      1  LIG1  -0.6700
     13 C10       -16.1513    15.2685   -16.3053 C.cat      1  LIG1   0.6500
     14 N3        -15.2811    15.5080   -15.3268 N.pl3      1  LIG1  -0.5500
     15 H1        -14.8473    16.3572   -15.1490 H          1  LIG1   0.4600
     16 C11       -15.1019    14.3520   -14.6133 C.ar       1  LIG1   0.0700
     17 C12       -14.3273    14.0129   -13.5083 C.ar       1  LIG1  -0.0800
     18 C13       -14.3670    12.7275   -13.0122 C.ar       1  LIG1  -0.0800
     19 C14       -15.1735    11.7688   -13.6069 C.ar       1  LIG1  -0.0800
     20 C15       -15.9466    12.0879   -14.7026 C.ar       1  LIG1  -0.0800
     21 C16       -15.9192    13.3811   -15.2155 C.ar       1  LIG1   0.0700
     22 N4        -16.5552    14.0010   -16.2590 N.pl3      1  LIG1  -0.5600
     23 C17       -15.5575    17.4013   -19.6269 C.ar       1  LIG1   0.1800
     24 N5        -15.5399    17.8963   -20.8498 N.ar       1  LIG1  -0.5400
     25 H2        -20.5082    19.8798   -21.2538 H          1  LIG1   0.0800
     26 H3        -20.4324    21.2843   -22.3446 H          1  LIG1   0.0400
     27 H4        -20.2307    19.6400   -22.9955 H          1  LIG1   0.0400
     28 H5        -18.0526    20.2709   -23.9146 H          1  LIG1   0.0600
     29 H6        -18.2544    21.9152   -23.2638 H          1  LIG1   0.0700
     30 H7        -15.8551    21.3617   -23.5555 H          1  LIG1   0.1000
     31 H8        -16.2523    21.5960   -21.8362 H          1  LIG1   0.0900
     32 H9        -15.0995    17.7986   -23.0815 H          1  LIG1   0.0600
     33 H10       -16.1813    18.6089   -24.2396 H          1  LIG1   0.0800
     34 H11       -14.5466    19.2508   -23.9496 H          1  LIG1   0.0700
     35 H12       -16.8198    20.9257   -20.3047 H          1  LIG1   0.1500
     36 H13       -16.8830    20.0369   -17.9871 H          1  LIG1   0.1300
     37 H14       -15.0466    17.5588   -16.7721 H          1  LIG1   0.0900
     38 H15       -16.7004    18.1747   -16.5398 H          1  LIG1   0.0900
     39 H16       -17.2173    15.9448   -17.9088 H          1  LIG1   0.4400
     40 H17       -13.6965    14.7547   -13.0409 H          1  LIG1   0.1500
     41 H18       -13.7655    12.4650   -12.1545 H          1  LIG1   0.1500
     42 H19       -15.1955    10.7651   -13.2092 H          1  LIG1   0.1500
     43 H20       -16.5721    11.3364   -15.1616 H          1  LIG1   0.1500
     44 H21       -17.1904    13.5858   -16.8631 H          1  LIG1   0.4600
     45 H22       -15.1951    16.3989   -19.4525 H          1  LIG1   0.1500
@<TRIPOS>BOND
     1    1    2 1
     2    1   25 1
     3    1   26 1
     4    1   27 1
     5    2    3 1
     6    3    4 1
     7    3   28 1
     8    3   29 1
     9    4    5 1
    10    4   30 1
    11    4   31 1
    12    5    6 1
    13    5    7 1
    14    6   32 1
    15    6   33 1
    16    6   34 1
    17    7   24 ar
    18    7    8 ar
    19    8    9 ar
    20    8   35 1
    21    9   10 ar
    22    9   36 1
    23   10   11 1
    24   10   23 ar
    25   11   12 1
    26   11   37 1
    27   11   38 1
    28   12   13 1
    29   12   39 1
    30   13   22 1
    31   13   14 1
    32   14   15 1
    33   14   16 1
    34   16   21 ar
    35   16   17 ar
    36   17   18 ar
    37   17   40 1
    38   18   19 ar
    39   18   41 1
    40   19   20 ar
    41   19   42 1
    42   20   21 ar
    43   20   43 1
    44   21   22 1
    45   22   44 1
    46   23   24 ar
    47   23   45 1
##########                 Name:     ZINC000414865159
##########          Protonation:                 none
##########               SMILES:   CC[NH2+]CC1=CC=CC=C1NCC1=CC=C(N2CCCC2)N=C1
##########            Long Name:   NO_LONG_NAME
##########          FlexRecCode: 1
##########               Number:                 9097
##########   Ligand Source File: /nfs/db/export/3D/DG/ADRO/DGADRO.xcbj.db2.gz
##########                 Rank:                    1
##########               Setnum:                   36
##########             Matchnum:                    1
##########                Cloud:                    1
##########        Electrostatic:           -33.485527
##########                 Gist:             0.000000
##########        Van der Waals:           -31.137358
##########  Ligand Polar Desolv:            10.918957
########## Ligand Apolar Desolv:            -4.295031
##########      Internal Energy:             0.000000
##########      Receptor Energy:             0.000000
########## Receptor Desolvation:             0.000000
########## Receptor Hydrophobic:             0.000000
##########         Total Energy:           -57.998962
##########        Ligand Charge:             1.000000
##########            Arbitrary:    +999.9990
##########        Ligand Energy:             0.000000

@<TRIPOS>MOLECULE
 ZINC000414865159      none
   50    52     0     0     0



@<TRIPOS>ATOM
      1 C1        -16.5453    16.5120   -17.1454 C.3        1  LIG1  -0.1900
      2 C2        -17.0798    16.2292   -18.5510 C.3        1  LIG1  -0.0100
      3 N1        -18.4962    16.6124   -18.6225 N.4        1  LIG1  -0.5100
      4 H1        -19.0237    16.0783   -17.9484 H          1  LIG1   0.4300
      5 H2        -18.5891    17.5964   -18.4190 H          1  LIG1   0.4200
      6 C3        -19.0092    16.3410   -19.9719 C.3        1  LIG1   0.0500
      7 C4        -20.4622    16.7341   -20.0455 C.ar       1  LIG1  -0.2500
      8 C5        -21.4437    15.8149   -19.7322 C.ar       1  LIG1  -0.0400
      9 C6        -22.7774    16.1747   -19.7999 C.ar       1  LIG1  -0.1700
     10 C7        -23.1327    17.4555   -20.1807 C.ar       1  LIG1  -0.0300
     11 C8        -22.1560    18.3802   -20.4949 C.ar       1  LIG1  -0.1900
     12 C9        -20.8154    18.0237   -20.4230 C.ar       1  LIG1   0.2400
     13 N2        -19.8252    18.9562   -20.7401 N.pl3      1  LIG1  -0.7500
     14 C10       -20.1603    20.1376   -21.5391 C.3        1  LIG1   0.1700
     15 C11       -18.9569    20.5586   -22.3424 C.ar       1  LIG1  -0.2100
     16 C12       -18.2048    19.6131   -23.0266 C.ar       1  LIG1  -0.0400
     17 C13       -17.1080    20.0415   -23.7527 C.ar       1  LIG1  -0.1800
     18 C14       -16.7974    21.3971   -23.7726 C.ar       1  LIG1   0.3200
     19 N3        -15.6981    21.8415   -24.4980 N.pl3      1  LIG1  -0.4600
     20 C15       -16.1001    22.8553   -25.5063 C.3        1  LIG1   0.0500
     21 C16       -14.7725    23.5907   -25.8184 C.3        1  LIG1  -0.1300
     22 C17       -14.0763    23.6474   -24.4394 C.3        1  LIG1  -0.1400
     23 C18       -14.7189    22.5148   -23.6174 C.3        1  LIG1   0.0300
     24 N4        -17.5399    22.2684   -23.1068 N.ar       1  LIG1  -0.5200
     25 C19       -18.5943    21.8890   -22.4102 C.ar       1  LIG1   0.1500
     26 H3        -15.4944    16.2277   -17.0923 H          1  LIG1   0.0800
     27 H4        -16.6458    17.5748   -16.9255 H          1  LIG1   0.1100
     28 H5        -17.1152    15.9349   -16.4171 H          1  LIG1   0.0800
     29 H6        -16.5101    16.8064   -19.2792 H          1  LIG1   0.1300
     30 H7        -16.9794    15.1663   -18.7708 H          1  LIG1   0.1300
     31 H8        -18.4394    16.9181   -20.7003 H          1  LIG1   0.1300
     32 H9        -18.9089    15.2781   -20.1918 H          1  LIG1   0.1400
     33 H10       -21.1695    14.8135   -19.4343 H          1  LIG1   0.1300
     34 H11       -23.5432    15.4535   -19.5549 H          1  LIG1   0.1300
     35 H12       -24.1751    17.7331   -20.2329 H          1  LIG1   0.1300
     36 H13       -22.4341    19.3803   -20.7928 H          1  LIG1   0.1300
     37 H14       -18.9156    18.8218   -20.4312 H          1  LIG1   0.3900
     38 H15       -20.9821    19.8983   -22.2141 H          1  LIG1   0.0800
     39 H16       -20.4584    20.9510   -20.8777 H          1  LIG1   0.0800
     40 H17       -18.4699    18.5667   -22.9927 H          1  LIG1   0.1400
     41 H18       -16.5007    19.3328   -24.2964 H          1  LIG1   0.1400
     42 H19       -16.4924    22.3730   -26.4016 H          1  LIG1   0.0900
     43 H20       -16.8327    23.5451   -25.0873 H          1  LIG1   0.0500
     44 H21       -14.1740    23.0213   -26.5295 H          1  LIG1   0.0800
     45 H22       -14.9672    24.5954   -26.1938 H          1  LIG1   0.0800
     46 H23       -13.0056    23.4749   -24.5488 H          1  LIG1   0.0800
     47 H24       -14.2582    24.6108   -23.9630 H          1  LIG1   0.0700
     48 H25       -15.2266    22.9298   -22.7467 H          1  LIG1   0.0800
     49 H26       -13.9541    21.8053   -23.3016 H          1  LIG1   0.0900
     50 H27       -19.1766    22.6279   -21.8796 H          1  LIG1   0.1600
@<TRIPOS>BOND
     1    1    2 1
     2    1   26 1
     3    1   27 1
     4    1   28 1
     5    2    3 1
     6    2   29 1
     7    2   30 1
     8    3    4 1
     9    3    5 1
    10    3    6 1
    11    6    7 1
    12    6   31 1
    13    6   32 1
    14    7   12 ar
    15    7    8 ar
    16    8    9 ar
    17    8   33 1
    18    9   10 ar
    19    9   34 1
    20   10   11 ar
    21   10   35 1
    22   11   12 ar
    23   11   36 1
    24   12   13 1
    25   13   14 1
    26   13   37 1
    27   14   15 1
    28   14   38 1
    29   14   39 1
    30   15   25 ar
    31   15   16 ar
    32   16   17 ar
    33   16   40 1
    34   17   18 ar
    35   17   41 1
    36   18   19 1
    37   18   24 ar
    38   19   23 1
    39   19   20 1
    40   20   21 1
    41   20   42 1
    42   20   43 1
    43   21   22 1
    44   21   44 1
    45   21   45 1
    46   22   23 1
    47   22   46 1
    48   22   47 1
    49   23   48 1
    50   23   49 1
    51   24   25 ar
    52   25   50 1
##########                 Name:     ZINC000497056051
##########          Protonation:                 none
##########               SMILES:   C[C@@H]1C[N@@H+](CC2=CC=CC3=CNN=C32)C[C@H]1NC(=O)OC(C)(C)C
##########            Long Name:   NO_LONG_NAME
##########          FlexRecCode: 1
##########               Number:                 1301
##########   Ligand Source File: /nfs/db/export/3D/EF/ADMO/EFADMO.xauj.db2.gz
##########                 Rank:                    1
##########               Setnum:                   68
##########             Matchnum:                    1
##########                Cloud:                    1
##########        Electrostatic:           -36.425476
##########                 Gist:             0.000000
##########        Van der Waals:           -32.008358
##########  Ligand Polar Desolv:            14.107431
########## Ligand Apolar Desolv:            -3.678357
##########      Internal Energy:             0.000000
##########      Receptor Energy:             0.000000
########## Receptor Desolvation:             0.000000
########## Receptor Hydrophobic:             0.000000
##########         Total Energy:           -58.004765
##########        Ligand Charge:             1.000000
##########            Arbitrary:    +999.9990
##########        Ligand Energy:             0.000000

@<TRIPOS>MOLECULE
 ZINC000497056051      none
   51    53     0     0     0



@<TRIPOS>ATOM
      1 C1        -15.2935    16.1921   -18.5735 C.3        1  LIG1  -0.1600
      2 C2        -16.3877    17.2032   -18.9219 C.3        1  LIG1  -0.1200
      3 H1        -15.9499    18.1836   -19.1098 H          1  LIG1   0.1200
      4 C3        -17.4194    17.2882   -17.7818 C.3        1  LIG1   0.0000
      5 N1        -18.7181    16.8514   -18.3387 N.4        1  LIG1  -0.3900
      6 H2        -18.8547    15.8658   -18.1710 H          1  LIG1   0.4300
      7 C4        -19.8129    17.6245   -17.7372 C.3        1  LIG1   0.0600
      8 C5        -21.1274    17.1671   -18.3151 C.ar       1  LIG1  -0.1700
      9 C6        -21.8216    16.1642   -17.7218 C.ar       1  LIG1   0.0000
     10 C7        -23.0427    15.7137   -18.2285 C.ar       1  LIG1  -0.1800
     11 C8        -23.5971    16.2562   -19.3414 C.ar       1  LIG1   0.0100
     12 C9        -22.9297    17.3041   -20.0109 C.ar       1  LIG1  -0.2200
     13 C10       -23.1921    18.0657   -21.1344 C.2        1  LIG1   0.1200
     14 N2        -22.1797    18.9290   -21.2926 N.pl3      1  LIG1  -0.4100
     15 N3        -21.2352    18.7491   -20.2755 N.2        1  LIG1  -0.3200
     16 C11       -21.6464    17.7834   -19.4741 C.ar       1  LIG1   0.1100
     17 C12       -18.6430    17.1172   -19.7981 C.3        1  LIG1  -0.0200
     18 C13       -17.1857    16.7262   -20.1570 C.3        1  LIG1   0.1500
     19 H3        -17.0951    15.6469   -20.2802 H          1  LIG1   0.1300
     20 N4        -16.7452    17.4229   -21.3681 N.am       1  LIG1  -0.7000
     21 C14       -16.7784    18.7692   -21.4208 C.2        1  LIG1   0.6500
     22 O1        -17.1735    19.4052   -20.4637 O.2        1  LIG1  -0.5600
     23 O2        -16.3735    19.4096   -22.5338 O.3        1  LIG1  -0.3600
     24 C15       -17.0045    20.6838   -22.8276 C.3        1  LIG1   0.1400
     25 C16       -16.7470    21.6579   -21.6763 C.3        1  LIG1  -0.1800
     26 C17       -16.4200    21.2563   -24.1205 C.3        1  LIG1  -0.1500
     27 C18       -18.5116    20.4799   -22.9958 C.3        1  LIG1  -0.1900
     28 H4        -15.7451    15.2175   -18.3883 H          1  LIG1   0.0800
     29 H5        -14.5918    16.1155   -19.4040 H          1  LIG1   0.0800
     30 H6        -14.7641    16.5229   -17.6799 H          1  LIG1   0.0700
     31 H7        -17.1252    16.6293   -16.9649 H          1  LIG1   0.1400
     32 H8        -17.4949    18.3154   -17.4252 H          1  LIG1   0.1400
     33 H9        -19.8169    17.4699   -16.6583 H          1  LIG1   0.1400
     34 H10       -19.6705    18.6836   -17.9520 H          1  LIG1   0.1400
     35 H11       -21.4189    15.7012   -16.8330 H          1  LIG1   0.1300
     36 H12       -23.5591    14.9120   -17.7212 H          1  LIG1   0.1400
     37 H13       -24.5423    15.8886   -19.7127 H          1  LIG1   0.1400
     38 H14       -24.0594    17.9796   -21.7723 H          1  LIG1   0.2000
     39 H15       -22.1111    19.5816   -22.0069 H          1  LIG1   0.4500
     40 H16       -19.3537    16.4931   -20.3399 H          1  LIG1   0.1400
     41 H17       -18.8192    18.1725   -20.0065 H          1  LIG1   0.1400
     42 H18       -16.4294    16.9152   -22.1319 H          1  LIG1   0.4200
     43 H19       -17.2206    22.6145   -21.8968 H          1  LIG1   0.0600
     44 H20       -17.1634    21.2501   -20.7552 H          1  LIG1   0.0800
     45 H21       -15.6733    21.8030   -21.5565 H          1  LIG1   0.0800
     46 H22       -16.8936    22.2129   -24.3411 H          1  LIG1   0.0700
     47 H23       -15.3464    21.4015   -24.0008 H          1  LIG1   0.0900
     48 H24       -16.6035    20.5622   -24.9408 H          1  LIG1   0.0700
     49 H25       -18.9852    21.4365   -23.2163 H          1  LIG1   0.0800
     50 H26       -18.6951    19.7860   -23.8162 H          1  LIG1   0.0800
     51 H27       -18.9281    20.0721   -22.0748 H          1  LIG1   0.0600
@<TRIPOS>BOND
     1    1    2 1
     2    1   28 1
     3    1   29 1
     4    1   30 1
     5    2    3 1
     6    2   18 1
     7    2    4 1
     8    4    5 1
     9    4   31 1
    10    4   32 1
    11    5    6 1
    12    5    7 1
    13    5   17 1
    14    7    8 1
    15    7   33 1
    16    7   34 1
    17    8   16 ar
    18    8    9 ar
    19    9   10 ar
    20    9   35 1
    21   10   11 ar
    22   10   36 1
    23   11   12 ar
    24   11   37 1
    25   12   16 ar
    26   12   13 2
    27   13   14 1
    28   13   38 1
    29   14   15 1
    30   14   39 1
    31   15   16 2
    32   17   18 1
    33   17   40 1
    34   17   41 1
    35   18   19 1
    36   18   20 1
    37   20   21 am
    38   20   42 1
    39   21   22 2
    40   21   23 1
    41   23   24 1
    42   24   25 1
    43   24   26 1
    44   24   27 1
    45   25   43 1
    46   25   44 1
    47   25   45 1
    48   26   46 1
    49   26   47 1
    50   26   48 1
    51   27   49 1
    52   27   50 1
    53   27   51 1
##########                 Name:     ZINC000418149855
##########          Protonation:                 none
##########               SMILES:   O=C(NCC1=C(Br)SC=C1)N1CC[C@H]2CC[C@@H](C1)[NH2+]2
##########            Long Name:   NO_LONG_NAME
##########          FlexRecCode: 1
##########               Number:                 3651
##########   Ligand Source File: /nfs/db/export/3D/EF/ADRO/EFADRO.xbkv.db2.gz
##########                 Rank:                    1
##########               Setnum:                   41
##########             Matchnum:                    1
##########                Cloud:                    1
##########        Electrostatic:           -36.335659
##########                 Gist:             0.000000
##########        Van der Waals:           -28.934696
##########  Ligand Polar Desolv:            13.676191
########## Ligand Apolar Desolv:            -3.407900
##########      Internal Energy:             0.000000
##########      Receptor Energy:             0.000000
########## Receptor Desolvation:             0.000000
########## Receptor Hydrophobic:             0.000000
##########         Total Energy:           -55.002064
##########        Ligand Charge:             1.000000
##########            Arbitrary:    +999.9990
##########        Ligand Energy:             0.000000

@<TRIPOS>MOLECULE
 ZINC000418149855      none
   38    40     0     0     0



@<TRIPOS>ATOM
      1 O1        -15.3125    17.6448   -15.2633 O.2        1  LIG1  -0.5700
      2 C1        -15.0939    16.8454   -16.1531 C.2        1  LIG1   0.7000
      3 N1        -14.3273    15.7632   -15.9133 N.am       1  LIG1  -0.7300
      4 C2        -13.7574    15.5499   -14.5806 C.3        1  LIG1   0.1900
      5 C3        -14.2560    14.2409   -14.0247 C.2        1  LIG1  -0.0900
      6 C4        -13.9024    13.7916   -12.8186 C.2        1  LIG1  -0.2000
      7 Br1       -12.7456    14.6846   -11.6185 Br         1  LIG1   0.0200
      8 S1        -14.6774    12.2420   -12.5163 S.3        1  LIG1   0.1900
      9 C5        -15.4609    12.2927   -14.0901 C.2        1  LIG1  -0.2000
     10 C6        -15.1205    13.4157   -14.7237 C.2        1  LIG1  -0.1300
     11 N2        -15.6237    17.0391   -17.3799 N.am       1  LIG1  -0.6500
     12 C7        -15.8597    18.3836   -17.8621 C.3        1  LIG1   0.0900
     13 C8        -17.2582    18.8861   -17.5725 C.3        1  LIG1  -0.1700
     14 C9        -18.3510    18.1152   -18.2793 C.3        1  LIG1   0.0400
     15 H1        -19.3383    18.5188   -18.0237 H          1  LIG1   0.1500
     16 C10       -18.0979    18.1930   -19.7975 C.3        1  LIG1  -0.1400
     17 C11       -17.2855    16.9289   -20.1320 C.3        1  LIG1  -0.1400
     18 C12       -17.3296    16.0680   -18.8788 C.3        1  LIG1   0.0200
     19 H2        -17.7274    15.0855   -19.1521 H          1  LIG1   0.1500
     20 C13       -15.9546    15.8675   -18.2431 C.3        1  LIG1   0.1100
     21 N3        -18.2480    16.6815   -17.8928 N.4        1  LIG1  -0.5100
     22 H3        -17.8848    16.5880   -16.9575 H          1  LIG1   0.4300
     23 H4        -19.1581    16.2406   -17.9470 H          1  LIG1   0.4300
     24 H5        -14.1530    15.1253   -16.6232 H          1  LIG1   0.4000
     25 H6        -12.6699    15.5244   -14.6503 H          1  LIG1   0.0900
     26 H7        -14.0602    16.3635   -13.9215 H          1  LIG1   0.0900
     27 H8        -16.1203    11.5323   -14.4820 H          1  LIG1   0.1800
     28 H9        -15.4860    13.6597   -15.7103 H          1  LIG1   0.1500
     29 H10       -15.1429    19.0541   -17.3793 H          1  LIG1   0.1000
     30 H11       -15.6817    18.4143   -18.9362 H          1  LIG1   0.1000
     31 H12       -17.4349    18.8368   -16.4966 H          1  LIG1   0.0900
     32 H13       -17.3205    19.9339   -17.8768 H          1  LIG1   0.1300
     33 H14       -19.0446    18.1957   -20.3451 H          1  LIG1   0.1000
     34 H15       -17.5284    19.0922   -20.0477 H          1  LIG1   0.1100
     35 H16       -17.7432    16.3963   -20.9696 H          1  LIG1   0.1100
     36 H17       -16.2560    17.1885   -20.3813 H          1  LIG1   0.1100
     37 H18       -15.2008    15.7691   -19.0270 H          1  LIG1   0.1100
     38 H19       -15.9608    14.9591   -17.6380 H          1  LIG1   0.1200
@<TRIPOS>BOND
     1    1    2 2
     2    2    3 am
     3    2   11 am
     4    3    4 1
     5    3   24 1
     6    4    5 1
     7    4   25 1
     8    4   26 1
     9    5   10 1
    10    5    6 2
    11    6    7 1
    12    6    8 1
    13    8    9 1
    14    9   10 2
    15    9   27 1
    16   10   28 1
    17   11   20 1
    18   11   12 1
    19   12   13 1
    20   12   29 1
    21   12   30 1
    22   13   14 1
    23   13   31 1
    24   13   32 1
    25   14   15 1
    26   14   21 1
    27   14   16 1
    28   16   17 1
    29   16   33 1
    30   16   34 1
    31   17   18 1
    32   17   35 1
    33   17   36 1
    34   18   19 1
    35   18   20 1
    36   18   21 1
    37   20   37 1
    38   20   38 1
    39   21   22 1
    40   21   23 1
##########                 Name:     ZINC000624097807
##########          Protonation:                 none
##########               SMILES:   C[N@@H+]1C[C@H](C(=O)N[C@H]2COC3=CC=CC=C3C2)[C@@H](C2=CC=CC=C2)C1
##########            Long Name:   NO_LONG_NAME
##########          FlexRecCode: 1
##########               Number:                14052
##########   Ligand Source File: /nfs/db/export/3D/EE/ADRO/EEADRO.xcra.db2.gz
##########                 Rank:                    1
##########               Setnum:                   17
##########             Matchnum:                    1
##########                Cloud:                    1
##########        Electrostatic:           -40.211491
##########                 Gist:             0.000000
##########        Van der Waals:           -30.134333
##########  Ligand Polar Desolv:            19.841154
########## Ligand Apolar Desolv:            -4.498438
##########      Internal Energy:             0.000000
##########      Receptor Energy:             0.000000
########## Receptor Desolvation:             0.000000
########## Receptor Hydrophobic:             0.000000
##########         Total Energy:           -55.003109
##########        Ligand Charge:             1.000000
##########            Arbitrary:    +999.9990
##########        Ligand Energy:             0.000000

@<TRIPOS>MOLECULE
 ZINC000624097807      none
   50    53     0     0     0



@<TRIPOS>ATOM
      1 C1        -17.0941    16.6206   -17.0244 C.3        1  LIG1  -0.0500
      2 N1        -17.9849    16.3056   -18.1493 N.4        1  LIG1  -0.3900
      3 H1        -18.2877    15.3453   -18.0850 H          1  LIG1   0.4300
      4 C2        -17.2690    16.5173   -19.4254 C.3        1  LIG1   0.0000
      5 C3        -18.3422    17.0745   -20.3935 C.3        1  LIG1  -0.1300
      6 H2        -18.9511    16.2702   -20.8061 H          1  LIG1   0.1400
      7 C4        -17.7077    17.8863   -21.4933 C.2        1  LIG1   0.5200
      8 O1        -16.9594    17.3539   -22.2855 O.2        1  LIG1  -0.5000
      9 N2        -17.9719    19.2037   -21.5967 N.am       1  LIG1  -0.7200
     10 C5        -17.3551    19.9929   -22.6658 C.3        1  LIG1   0.1100
     11 H3        -17.1815    19.3600   -23.5362 H          1  LIG1   0.1100
     12 C6        -18.2788    21.1563   -23.0486 C.3        1  LIG1   0.0600
     13 O2        -17.7009    21.8440   -24.1590 O.3        1  LIG1  -0.3100
     14 C7        -16.3907    22.1936   -24.0767 C.ar       1  LIG1   0.1200
     15 C8        -15.9053    23.1595   -24.9521 C.ar       1  LIG1  -0.1400
     16 C9        -14.5789    23.5376   -24.9029 C.ar       1  LIG1  -0.0800
     17 C10       -13.7288    22.9555   -23.9812 C.ar       1  LIG1  -0.1500
     18 C11       -14.2081    21.9975   -23.1086 C.ar       1  LIG1  -0.0800
     19 C12       -15.5383    21.6158   -23.1519 C.ar       1  LIG1  -0.1600
     20 C13       -16.0260    20.5738   -22.1770 C.3        1  LIG1  -0.0800
     21 C14       -19.1790    17.9762   -19.4482 C.3        1  LIG1  -0.0400
     22 H4        -18.7085    18.9524   -19.3302 H          1  LIG1   0.1300
     23 C15       -20.5878    18.1246   -19.9623 C.ar       1  LIG1  -0.1000
     24 C16       -21.6299    18.3215   -19.0756 C.ar       1  LIG1  -0.1200
     25 C17       -22.9222    18.4576   -19.5471 C.ar       1  LIG1  -0.1100
     26 C18       -23.1724    18.3972   -20.9053 C.ar       1  LIG1  -0.1000
     27 C19       -22.1301    18.2010   -21.7921 C.ar       1  LIG1  -0.1100
     28 C20       -20.8372    18.0693   -21.3207 C.ar       1  LIG1  -0.0900
     29 C21       -19.1577    17.1989   -18.1186 C.3        1  LIG1  -0.0100
     30 H5        -16.7694    17.6584   -17.0976 H          1  LIG1   0.1300
     31 H6        -17.6278    16.4721   -16.0857 H          1  LIG1   0.1300
     32 H7        -16.2240    15.9647   -17.0554 H          1  LIG1   0.1200
     33 H8        -16.4644    17.2407   -19.2937 H          1  LIG1   0.1400
     34 H9        -16.8737    15.5730   -19.7999 H          1  LIG1   0.1500
     35 H10       -18.5706    19.6295   -20.9632 H          1  LIG1   0.4000
     36 H11       -19.2596    20.7702   -23.3261 H          1  LIG1   0.1100
     37 H12       -18.3779    21.8393   -22.2048 H          1  LIG1   0.0700
     38 H13       -16.5685    23.6147   -25.6727 H          1  LIG1   0.1300
     39 H14       -14.2054    24.2881   -25.5838 H          1  LIG1   0.1300
     40 H15       -12.6902    23.2492   -23.9434 H          1  LIG1   0.1300
     41 H16       -13.5418    21.5439   -22.3898 H          1  LIG1   0.1300
     42 H17       -16.1686    21.0315   -21.1981 H          1  LIG1   0.0800
     43 H18       -15.2875    19.7759   -22.0995 H          1  LIG1   0.0900
     44 H19       -21.4345    18.3688   -18.0145 H          1  LIG1   0.1200
     45 H20       -23.7365    18.6108   -18.8544 H          1  LIG1   0.1300
     46 H21       -24.1821    18.5028   -21.2737 H          1  LIG1   0.1300
     47 H22       -22.3257    18.1535   -22.8531 H          1  LIG1   0.1300
     48 H23       -20.0230    17.9161   -22.0135 H          1  LIG1   0.1300
     49 H24       -20.0679    16.6074   -18.0202 H          1  LIG1   0.1400
     50 H25       -19.0727    17.8945   -17.2837 H          1  LIG1   0.1400
@<TRIPOS>BOND
     1    1    2 1
     2    1   30 1
     3    1   31 1
     4    1   32 1
     5    2    3 1
     6    2   29 1
     7    2    4 1
     8    4    5 1
     9    4   33 1
    10    4   34 1
    11    5    6 1
    12    5    7 1
    13    5   21 1
    14    7    8 2
    15    7    9 am
    16    9   10 1
    17    9   35 1
    18   10   11 1
    19   10   20 1
    20   10   12 1
    21   12   13 1
    22   12   36 1
    23   12   37 1
    24   13   14 1
    25   14   19 ar
    26   14   15 ar
    27   15   16 ar
    28   15   38 1
    29   16   17 ar
    30   16   39 1
    31   17   18 ar
    32   17   40 1
    33   18   19 ar
    34   18   41 1
    35   19   20 1
    36   20   42 1
    37   20   43 1
    38   21   22 1
    39   21   23 1
    40   21   29 1
    41   23   28 ar
    42   23   24 ar
    43   24   25 ar
    44   24   44 1
    45   25   26 ar
    46   25   45 1
    47   26   27 ar
    48   26   46 1
    49   27   28 ar
    50   27   47 1
    51   28   48 1
    52   29   49 1
    53   29   50 1
##########                 Name:     ZINC000566614319
##########          Protonation:                 none
##########               SMILES:   CN(C[C@@H]1CCC[N@@H+]1C)C(=O)C1=CC=C(C2=NNC=C2)S1
##########            Long Name:   NO_LONG_NAME
##########          FlexRecCode: 1
##########               Number:                11312
##########   Ligand Source File: /nfs/db/export/3D/DE/ADRO/DEADRO.xasy.db2.gz
##########                 Rank:                    1
##########               Setnum:                   22
##########             Matchnum:                    1
##########                Cloud:                    1
##########        Electrostatic:           -43.610760
##########                 Gist:             0.000000
##########        Van der Waals:           -27.914642
##########  Ligand Polar Desolv:            20.054308
########## Ligand Apolar Desolv:            -3.527725
##########      Internal Energy:             0.000000
##########      Receptor Energy:             0.000000
########## Receptor Desolvation:             0.000000
########## Receptor Hydrophobic:             0.000000
##########         Total Energy:           -54.998825
##########        Ligand Charge:             1.000000
##########            Arbitrary:    +999.9990
##########        Ligand Energy:             0.000000

@<TRIPOS>MOLECULE
 ZINC000566614319      none
   42    44     0     0     0



@<TRIPOS>ATOM
      1 C1        -16.1327    16.5892   -18.5305 C.3        1  LIG1   0.0500
      2 N1        -17.0869    17.4811   -17.8671 N.am       1  LIG1  -0.6100
      3 C2        -18.2135    18.0386   -18.6194 C.3        1  LIG1   0.1100
      4 C3        -19.0769    16.9077   -19.1506 C.3        1  LIG1   0.0000
      5 H1        -18.4304    16.0691   -19.5108 H          1  LIG1   0.1400
      6 C4        -19.9798    17.3410   -20.3029 C.3        1  LIG1  -0.1400
      7 C5        -21.1284    16.3551   -20.2451 C.3        1  LIG1  -0.1400
      8 C6        -21.4148    16.2748   -18.7615 C.3        1  LIG1  -0.0100
      9 N2        -20.0370    16.3054   -18.1237 N.4        1  LIG1  -0.3900
     10 H2        -19.7606    15.2706   -18.0419 H          1  LIG1   0.4300
     11 C7        -20.0594    16.8710   -16.7376 C.3        1  LIG1  -0.0600
     12 C8        -16.9283    17.7888   -16.5645 C.2        1  LIG1   0.6000
     13 O1        -17.7212    18.5299   -16.0133 O.2        1  LIG1  -0.5200
     14 C9        -15.8021    17.2316   -15.8123 C.2        1  LIG1  -0.2900
     15 C10       -14.5730    17.8154   -15.6874 C.2        1  LIG1  -0.0300
     16 C11       -13.6772    17.1074   -14.9336 C.2        1  LIG1  -0.1300
     17 C12       -14.1561    15.9335   -14.4290 C.2        1  LIG1  -0.0900
     18 C13       -13.3874    14.9926   -13.5873 C.2        1  LIG1   0.1200
     19 N3        -12.1379    15.1448   -13.1952 N.2        1  LIG1  -0.2600
     20 N4        -11.7886    14.0343   -12.4163 N.pl3      1  LIG1  -0.4600
     21 C14       -12.8584    13.2121   -12.3504 C.2        1  LIG1   0.0700
     22 C15       -13.8624    13.7753   -13.0559 C.2        1  LIG1  -0.2600
     23 S1        -15.8281    15.7129   -14.9263 S.3        1  LIG1   0.2200
     24 H3        -15.3699    16.2776   -17.8168 H          1  LIG1   0.0800
     25 H4        -16.6575    15.7114   -18.9077 H          1  LIG1   0.0900
     26 H5        -15.6607    17.1148   -19.3605 H          1  LIG1   0.0900
     27 H6        -18.8095    18.6736   -17.9640 H          1  LIG1   0.1100
     28 H7        -17.8361    18.6302   -19.4535 H          1  LIG1   0.1100
     29 H8        -20.3299    18.3713   -20.1516 H          1  LIG1   0.1000
     30 H9        -19.4432    17.2732   -21.2592 H          1  LIG1   0.1100
     31 H10       -22.0035    16.7269   -20.8019 H          1  LIG1   0.1200
     32 H11       -20.8338    15.3732   -20.6491 H          1  LIG1   0.1000
     33 H12       -21.9865    17.1303   -18.4132 H          1  LIG1   0.1300
     34 H13       -21.9066    15.3437   -18.4944 H          1  LIG1   0.1400
     35 H14       -20.7928    16.3325   -16.1372 H          1  LIG1   0.1300
     36 H15       -19.0728    16.7657   -16.2862 H          1  LIG1   0.1300
     37 H16       -20.3289    17.9262   -16.7800 H          1  LIG1   0.1200
     38 H17       -14.3278    18.7612   -16.1477 H          1  LIG1   0.1600
     39 H18       -12.6694    17.4507   -14.7523 H          1  LIG1   0.1600
     40 H19       -10.9272    13.8818   -11.9969 H          1  LIG1   0.4500
     41 H20       -12.9040    12.2711   -11.8225 H          1  LIG1   0.1900
     42 H21       -14.8512    13.3636   -13.1946 H          1  LIG1   0.1500
@<TRIPOS>BOND
     1    1    2 1
     2    1   24 1
     3    1   25 1
     4    1   26 1
     5    2    3 1
     6    2   12 am
     7    3    4 1
     8    3   27 1
     9    3   28 1
    10    4    5 1
    11    4    9 1
    12    4    6 1
    13    6    7 1
    14    6   29 1
    15    6   30 1
    16    7    8 1
    17    7   31 1
    18    7   32 1
    19    8    9 1
    20    8   33 1
    21    8   34 1
    22    9   10 1
    23    9   11 1
    24   11   35 1
    25   11   36 1
    26   11   37 1
    27   12   13 2
    28   12   14 1
    29   14   23 1
    30   14   15 2
    31   15   16 1
    32   15   38 1
    33   16   17 2
    34   16   39 1
    35   17   18 1
    36   17   23 1
    37   18   22 1
    38   18   19 2
    39   19   20 1
    40   20   21 1
    41   20   40 1
    42   21   22 2
    43   21   41 1
    44   22   42 1
##########                 Name:     ZINC000341120539
##########          Protonation:                 none
##########               SMILES:   CC1=CC=C(S(=O)(=O)CCC[N@H+]2C[C@H](O)C[C@H]2C)C=C1
##########            Long Name:   NO_LONG_NAME
##########          FlexRecCode: 1
##########               Number:                10988
##########   Ligand Source File: /nfs/db/export/3D/CD/ADMO/CDADMO.xaqn.db2.gz
##########                 Rank:                    1
##########               Setnum:                   17
##########             Matchnum:                    1
##########                Cloud:                    1
##########        Electrostatic:           -41.240318
##########                 Gist:             0.000000
##########        Van der Waals:           -28.782736
##########  Ligand Polar Desolv:            17.185448
########## Ligand Apolar Desolv:            -2.164506
##########      Internal Energy:             0.000000
##########      Receptor Energy:             0.000000
########## Receptor Desolvation:             0.000000
########## Receptor Hydrophobic:             0.000000
##########         Total Energy:           -55.002113
##########        Ligand Charge:             1.000000
##########            Arbitrary:    +999.9990
##########        Ligand Energy:             0.000000

@<TRIPOS>MOLECULE
 ZINC000341120539      none
   44    45     0     0     0



@<TRIPOS>ATOM
      1 C1        -14.9405    11.0590   -13.0330 C.3        1  LIG1  -0.1300
      2 C2        -15.1613    12.2814   -13.8864 C.ar       1  LIG1  -0.0200
      3 C3        -14.5863    13.4866   -13.5293 C.ar       1  LIG1  -0.1400
      4 C4        -14.7887    14.6079   -14.3121 C.ar       1  LIG1  -0.0200
      5 C5        -15.5659    14.5238   -15.4521 C.ar       1  LIG1  -0.6700
      6 S1        -15.8245    15.9531   -16.4495 S.o2       1  LIG1   2.5000
      7 O1        -14.6861    16.7657   -16.1991 O.2        1  LIG1  -0.9200
      8 O2        -16.0827    15.4332   -17.7466 O.2        1  LIG1  -0.9200
      9 C6        -17.3179    16.7203   -15.7625 C.3        1  LIG1  -0.6200
     10 C7        -17.6503    17.9871   -16.5533 C.3        1  LIG1  -0.1500
     11 C8        -17.8920    17.6241   -18.0199 C.3        1  LIG1  -0.0100
     12 N1        -19.0141    16.6806   -18.1123 N.4        1  LIG1  -0.3900
     13 H1        -18.7986    15.8434   -17.5917 H          1  LIG1   0.4300
     14 C9        -20.2365    17.3062   -17.5645 C.3        1  LIG1  -0.0100
     15 C10       -21.3857    16.7792   -18.4595 C.3        1  LIG1   0.0900
     16 H2        -22.2318    17.4663   -18.4535 H          1  LIG1   0.1100
     17 O3        -21.7904    15.4697   -18.0551 O.3        1  LIG1  -0.5600
     18 C11       -20.7068    16.7459   -19.8541 C.3        1  LIG1  -0.1700
     19 C12       -19.2586    16.3371   -19.5252 C.3        1  LIG1   0.0300
     20 H3        -19.1342    15.2640   -19.6697 H          1  LIG1   0.1400
     21 C13       -18.2852    17.0998   -20.4261 C.3        1  LIG1  -0.1800
     22 C14       -16.1398    13.3182   -15.8100 C.ar       1  LIG1  -0.0200
     23 C15       -15.9342    12.1960   -15.0293 C.ar       1  LIG1  -0.1400
     24 H4        -14.3107    11.3188   -12.1822 H          1  LIG1   0.0800
     25 H5        -15.9006    10.6880   -12.6744 H          1  LIG1   0.0800
     26 H6        -14.4505    10.2861   -13.6252 H          1  LIG1   0.0800
     27 H7        -13.9790    13.5523   -12.6386 H          1  LIG1   0.1400
     28 H8        -14.3400    15.5497   -14.0326 H          1  LIG1   0.1400
     29 H9        -18.1504    16.0202   -15.8310 H          1  LIG1   0.1500
     30 H10       -17.1457    16.9789   -14.7176 H          1  LIG1   0.1500
     31 H11       -18.5477    18.4482   -16.1407 H          1  LIG1   0.1100
     32 H12       -16.8178    18.6872   -16.4848 H          1  LIG1   0.1000
     33 H13       -18.1288    18.5266   -18.5833 H          1  LIG1   0.1400
     34 H14       -16.9947    17.1629   -18.4326 H          1  LIG1   0.1400
     35 H15       -20.3895    16.9983   -16.5301 H          1  LIG1   0.1500
     36 H16       -20.1702    18.3921   -17.6324 H          1  LIG1   0.1500
     37 H17       -21.0862    14.8088   -18.1005 H          1  LIG1   0.4100
     38 H18       -21.1815    16.0041   -20.4963 H          1  LIG1   0.1200
     39 H19       -20.7318    17.7318   -20.3185 H          1  LIG1   0.1100
     40 H20       -18.4738    16.8393   -21.4676 H          1  LIG1   0.0800
     41 H21       -18.4264    18.1718   -20.2882 H          1  LIG1   0.0800
     42 H22       -17.2616    16.8316   -20.1641 H          1  LIG1   0.1000
     43 H23       -16.7467    13.2523   -16.7009 H          1  LIG1   0.1400
     44 H24       -16.3826    11.2541   -15.3088 H          1  LIG1   0.1400
@<TRIPOS>BOND
     1    1    2 1
     2    1   24 1
     3    1   25 1
     4    1   26 1
     5    2   23 ar
     6    2    3 ar
     7    3    4 ar
     8    3   27 1
     9    4    5 ar
    10    4   28 1
    11    5    6 1
    12    5   22 ar
    13    6    7 2
    14    6    8 2
    15    6    9 1
    16    9   10 1
    17    9   29 1
    18    9   30 1
    19   10   11 1
    20   10   31 1
    21   10   32 1
    22   11   12 1
    23   11   33 1
    24   11   34 1
    25   12   13 1
    26   12   19 1
    27   12   14 1
    28   14   15 1
    29   14   35 1
    30   14   36 1
    31   15   16 1
    32   15   17 1
    33   15   18 1
    34   17   37 1
    35   18   19 1
    36   18   38 1
    37   18   39 1
    38   19   20 1
    39   19   21 1
    40   21   40 1
    41   21   41 1
    42   21   42 1
    43   22   23 ar
    44   22   43 1
    45   23   44 1
##########                 Name:     ZINC000355023141
##########          Protonation:                 none
##########               SMILES:   COC1=CC=C2N=C(C[NH2+][C@@H](CCCO)C3=CC=CC=C3)NC2=N1
##########            Long Name:   NO_LONG_NAME
##########          FlexRecCode: 1
##########               Number:                 3844
##########   Ligand Source File: /nfs/db/export/3D/EF/ADRO/EFADRO.xcel.db2.gz
##########                 Rank:                    1
##########               Setnum:                  212
##########             Matchnum:                    1
##########                Cloud:                    1
##########        Electrostatic:           -31.784531
##########                 Gist:             0.000000
##########        Van der Waals:           -32.220146
##########  Ligand Polar Desolv:            10.917786
########## Ligand Apolar Desolv:            -1.917305
##########      Internal Energy:             0.000000
##########      Receptor Energy:             0.000000
########## Receptor Desolvation:             0.000000
########## Receptor Hydrophobic:             0.000000
##########         Total Energy:           -55.004196
##########        Ligand Charge:             1.000000
##########            Arbitrary:    +999.9990
##########        Ligand Energy:             0.000000

@<TRIPOS>MOLECULE
 ZINC000355023141      none
   47    49     0     0     0



@<TRIPOS>ATOM
      1 C1        -14.7196    12.1130   -13.8086 C.3        1  LIG1   0.0400
      2 O1        -13.9300    13.2944   -13.6573 O.3        1  LIG1  -0.2900
      3 C2        -14.3692    14.4136   -14.2863 C.ar       1  LIG1   0.3900
      4 C3        -13.6350    15.5915   -14.1770 C.ar       1  LIG1  -0.1800
      5 C4        -14.0733    16.7246   -14.8097 C.ar       1  LIG1   0.0300
      6 C5        -15.2576    16.6555   -15.5517 C.ar       1  LIG1  -0.0400
      7 N1        -15.9614    17.5565   -16.2839 N.2        1  LIG1  -0.4200
      8 C6        -17.0147    16.9807   -16.7847 C.2        1  LIG1   0.1900
      9 C7        -18.0389    17.6609   -17.6560 C.3        1  LIG1   0.0900
     10 N2        -17.6452    17.5330   -19.0657 N.4        1  LIG1  -0.5100
     11 H1        -16.7447    17.9666   -19.2039 H          1  LIG1   0.4300
     12 H2        -17.5896    16.5561   -19.3119 H          1  LIG1   0.4300
     13 C8        -18.6436    18.1961   -19.9150 C.3        1  LIG1   0.0900
     14 H3        -18.7038    19.2513   -19.6489 H          1  LIG1   0.1500
     15 C9        -18.2335    18.0629   -21.3830 C.3        1  LIG1  -0.1400
     16 C10       -17.1641    19.1070   -21.7105 C.3        1  LIG1  -0.1400
     17 C11       -16.7540    18.9738   -23.1785 C.3        1  LIG1   0.0700
     18 O2        -16.2286    17.6651   -23.4095 O.3        1  LIG1  -0.5800
     19 C12       -19.9886    17.5484   -19.7084 C.ar       1  LIG1  -0.1500
     20 C13       -21.1444    18.2906   -19.8640 C.ar       1  LIG1  -0.1200
     21 C14       -22.3780    17.6965   -19.6743 C.ar       1  LIG1  -0.1000
     22 C15       -22.4559    16.3600   -19.3296 C.ar       1  LIG1  -0.0900
     23 C16       -21.3001    15.6177   -19.1749 C.ar       1  LIG1  -0.1100
     24 C17       -20.0666    16.2107   -19.3687 C.ar       1  LIG1  -0.0900
     25 N3        -17.0559    15.6725   -16.4072 N.pl3      1  LIG1  -0.5700
     26 C18       -15.9500    15.4347   -15.6207 C.ar       1  LIG1   0.3100
     27 N4        -15.4827    14.3643   -14.9955 N.ar       1  LIG1  -0.5500
     28 H4        -14.2578    11.2941   -13.2570 H          1  LIG1   0.0600
     29 H5        -15.7217    12.2935   -13.4196 H          1  LIG1   0.1100
     30 H6        -14.7818    11.8503   -14.8647 H          1  LIG1   0.0600
     31 H7        -12.7247    15.6117   -13.5961 H          1  LIG1   0.1600
     32 H8        -13.5187    17.6486   -14.7373 H          1  LIG1   0.1600
     33 H9        -19.0117    17.1926   -17.5067 H          1  LIG1   0.1700
     34 H10       -18.0989    18.7162   -17.3900 H          1  LIG1   0.1500
     35 H11       -17.8327    17.0647   -21.5591 H          1  LIG1   0.0900
     36 H12       -19.1041    18.2224   -22.0193 H          1  LIG1   0.1200
     37 H13       -17.5650    20.1052   -21.5343 H          1  LIG1   0.0900
     38 H14       -16.2938    18.9475   -21.0742 H          1  LIG1   0.0700
     39 H15       -17.6246    19.1333   -23.8148 H          1  LIG1   0.0500
     40 H16       -15.9923    19.7176   -23.4119 H          1  LIG1   0.0600
     41 H17       -15.4506    17.4539   -22.8755 H          1  LIG1   0.3900
     42 H18       -21.0835    19.3347   -20.1333 H          1  LIG1   0.1200
     43 H19       -23.2810    18.2765   -19.7951 H          1  LIG1   0.1400
     44 H20       -23.4197    15.8961   -19.1807 H          1  LIG1   0.1400
     45 H21       -21.3611    14.5737   -18.9052 H          1  LIG1   0.1400
     46 H22       -19.1636    15.6307   -19.2478 H          1  LIG1   0.1300
     47 H23       -17.7386    15.0269   -16.6478 H          1  LIG1   0.4300
@<TRIPOS>BOND
     1    1    2 1
     2    1   28 1
     3    1   29 1
     4    1   30 1
     5    2    3 1
     6    3   27 ar
     7    3    4 ar
     8    4    5 ar
     9    4   31 1
    10    5    6 ar
    11    5   32 1
    12    6   26 ar
    13    6    7 1
    14    7    8 2
    15    8    9 1
    16    8   25 1
    17    9   10 1
    18    9   33 1
    19    9   34 1
    20   10   11 1
    21   10   12 1
    22   10   13 1
    23   13   14 1
    24   13   15 1
    25   13   19 1
    26   15   16 1
    27   15   35 1
    28   15   36 1
    29   16   17 1
    30   16   37 1
    31   16   38 1
    32   17   18 1
    33   17   39 1
    34   17   40 1
    35   18   41 1
    36   19   24 ar
    37   19   20 ar
    38   20   21 ar
    39   20   42 1
    40   21   22 ar
    41   21   43 1
    42   22   23 ar
    43   22   44 1
    44   23   24 ar
    45   23   45 1
    46   24   46 1
    47   25   26 1
    48   25   47 1
    49   26   27 ar
##########                 Name:     ZINC000185593526
##########          Protonation:                 none
##########               SMILES:   [NH2+]=C(NCC1=NC=C(C2=CC=CC=C2)C=N1)N1CCCCC1
##########            Long Name:   NO_LONG_NAME
##########          FlexRecCode: 1
##########               Number:                 7838
##########   Ligand Source File: /nfs/db/export/3D/CE/EDRO/CEEDRO.xcj.db2.gz
##########                 Rank:                    1
##########               Setnum:                  176
##########             Matchnum:                    1
##########                Cloud:                    1
##########        Electrostatic:           -27.086472
##########                 Gist:             0.000000
##########        Van der Waals:           -32.034084
##########  Ligand Polar Desolv:             9.866920
########## Ligand Apolar Desolv:            -5.746369
##########      Internal Energy:             0.000000
##########      Receptor Energy:             0.000000
########## Receptor Desolvation:             0.000000
########## Receptor Hydrophobic:             0.000000
##########         Total Energy:           -55.000008
##########        Ligand Charge:             1.000000
##########            Arbitrary:    +999.9990
##########        Ligand Energy:             0.000000

@<TRIPOS>MOLECULE
 ZINC000185593526      none
   44    46     0     0     0



@<TRIPOS>ATOM
      1 N1        -18.7145    16.2542   -19.3111 N.pl3      1  LIG1  -0.7700
      2 H1        -17.7532    16.1256   -19.3050 H          1  LIG1   0.4400
      3 H2        -19.3034    15.5024   -19.4816 H          1  LIG1   0.4400
      4 C1        -19.2154    17.4361   -19.0847 C.cat      1  LIG1   0.7500
      5 N2        -18.3809    18.5010   -18.8401 N.pl3      1  LIG1  -0.6800
      6 C2        -16.9287    18.3073   -18.8339 C.3        1  LIG1   0.1700
      7 C3        -16.5602    17.3044   -17.7713 C.ar       1  LIG1   0.2600
      8 N3        -16.2986    17.7325   -16.5521 N.ar       1  LIG1  -0.4900
      9 C4        -15.9713    16.8868   -15.5903 C.ar       1  LIG1   0.1500
     10 C5        -15.9054    15.5223   -15.8829 C.ar       1  LIG1  -0.1000
     11 C6        -15.5430    14.5347   -14.8364 C.ar       1  LIG1  -0.0700
     12 C7        -16.0448    13.2361   -14.8967 C.ar       1  LIG1  -0.1000
     13 C8        -15.7047    12.3216   -13.9206 C.ar       1  LIG1  -0.1100
     14 C9        -14.8676    12.6921   -12.8836 C.ar       1  LIG1  -0.1000
     15 C10       -14.3670    13.9799   -12.8186 C.ar       1  LIG1  -0.1100
     16 C11       -14.6953    14.9007   -13.7930 C.ar       1  LIG1  -0.1000
     17 C12       -16.1904    15.1133   -17.1880 C.ar       1  LIG1   0.1500
     18 N4        -16.5146    16.0256   -18.0882 N.ar       1  LIG1  -0.4900
     19 N5        -20.5781    17.6179   -19.0903 N.pl3      1  LIG1  -0.6100
     20 C13       -21.2057    18.5455   -20.0413 C.3        1  LIG1   0.1100
     21 C14       -22.3025    17.7993   -20.8073 C.3        1  LIG1  -0.1400
     22 C15       -23.2762    17.1676   -19.8099 C.3        1  LIG1  -0.1300
     23 C16       -22.5288    16.1604   -18.9330 C.3        1  LIG1  -0.1400
     24 C17       -21.4352    16.8835   -18.1497 C.3        1  LIG1   0.1100
     25 H3        -18.7535    19.3805   -18.6715 H          1  LIG1   0.4400
     26 H4        -16.6071    17.9392   -19.8081 H          1  LIG1   0.1200
     27 H5        -16.4365    19.2570   -18.6237 H          1  LIG1   0.1200
     28 H6        -15.7581    17.2450   -14.5940 H          1  LIG1   0.1800
     29 H7        -16.6990    12.9460   -15.7055 H          1  LIG1   0.1300
     30 H8        -16.0930    11.3149   -13.9663 H          1  LIG1   0.1300
     31 H9        -14.6042    11.9734   -12.1217 H          1  LIG1   0.1300
     32 H10       -13.7141    14.2641   -12.0066 H          1  LIG1   0.1300
     33 H11       -14.3039    15.9059   -13.7413 H          1  LIG1   0.1300
     34 H12       -16.1505    14.0679   -17.4562 H          1  LIG1   0.1800
     35 H13       -21.6440    19.3833   -19.4992 H          1  LIG1   0.0900
     36 H14       -20.4560    18.9132   -20.7420 H          1  LIG1   0.0900
     37 H15       -22.8399    18.4992   -21.4471 H          1  LIG1   0.0900
     38 H16       -21.8516    17.0186   -21.4199 H          1  LIG1   0.0700
     39 H17       -23.7082    17.9462   -19.1813 H          1  LIG1   0.0700
     40 H18       -24.0714    16.6566   -20.3527 H          1  LIG1   0.0800
     41 H19       -23.2275    15.6937   -18.2385 H          1  LIG1   0.1000
     42 H20       -22.0757    15.3950   -19.5631 H          1  LIG1   0.0700
     43 H21       -20.8375    16.1561   -17.6002 H          1  LIG1   0.0900
     44 H22       -21.8896    17.5874   -17.4525 H          1  LIG1   0.1000
@<TRIPOS>BOND
     1    1    2 1
     2    1    3 1
     3    1    4 2
     4    4    5 1
     5    4   19 1
     6    5    6 1
     7    5   25 1
     8    6    7 1
     9    6   26 1
    10    6   27 1
    11    7   18 ar
    12    7    8 ar
    13    8    9 ar
    14    9   10 ar
    15    9   28 1
    16   10   11 1
    17   10   17 ar
    18   11   16 ar
    19   11   12 ar
    20   12   13 ar
    21   12   29 1
    22   13   14 ar
    23   13   30 1
    24   14   15 ar
    25   14   31 1
    26   15   16 ar
    27   15   32 1
    28   16   33 1
    29   17   18 ar
    30   17   34 1
    31   19   24 1
    32   19   20 1
    33   20   21 1
    34   20   35 1
    35   20   36 1
    36   21   22 1
    37   21   37 1
    38   21   38 1
    39   22   23 1
    40   22   39 1
    41   22   40 1
    42   23   24 1
    43   23   41 1
    44   23   42 1
    45   24   43 1
    46   24   44 1
##########                 Name:     ZINC000339591161
##########          Protonation:                 none
##########               SMILES:   C=CCCCNC(=O)C(=O)NCC1([NH+]2CCCCC2)CCCCC1
##########            Long Name:   NO_LONG_NAME
##########          FlexRecCode: 1
##########               Number:                13234
##########   Ligand Source File: /nfs/db/export/3D/EE/EDRO/EEEDRO.xbt.db2.gz
##########                 Rank:                    1
##########               Setnum:                   63
##########             Matchnum:                    1
##########                Cloud:                    1
##########        Electrostatic:           -30.663050
##########                 Gist:             0.000000
##########        Van der Waals:           -28.801016
##########  Ligand Polar Desolv:             7.941188
########## Ligand Apolar Desolv:            -3.477401
##########      Internal Energy:             0.000000
##########      Receptor Energy:             0.000000
########## Receptor Desolvation:             0.000000
########## Receptor Hydrophobic:             0.000000
##########         Total Energy:           -55.000278
##########        Ligand Charge:             1.000000
##########            Arbitrary:    +999.9990
##########        Ligand Energy:             0.000000

@<TRIPOS>MOLECULE
 ZINC000339591161      none
   58    59     0     0     0



@<TRIPOS>ATOM
      1 C1        -12.1945    23.5036   -22.9505 C.2        1  LIG1  -0.1800
      2 C2        -13.0742    23.6743   -23.9061 C.2        1  LIG1  -0.1600
      3 C3        -13.9392    22.5224   -24.3487 C.3        1  LIG1  -0.0900
      4 C4        -15.4116    22.8788   -24.1353 C.3        1  LIG1  -0.1300
      5 C5        -16.2898    21.7093   -24.5846 C.3        1  LIG1   0.1100
      6 N1        -15.9569    20.5185   -23.7988 N.am       1  LIG1  -0.6900
      7 C6        -16.6069    20.2693   -22.6447 C.2        1  LIG1   0.5100
      8 O1        -17.4678    21.0312   -22.2565 O.2        1  LIG1  -0.5200
      9 C7        -16.2672    19.0546   -21.8432 C.2        1  LIG1   0.5200
     10 O2        -15.4062    18.2925   -22.2314 O.2        1  LIG1  -0.4900
     11 N2        -16.9170    18.8054   -20.6890 N.am       1  LIG1  -0.7300
     12 C8        -16.5840    17.6146   -19.9031 C.3        1  LIG1   0.1000
     13 C9        -17.4605    17.5691   -18.6499 C.3        1  LIG1   0.0500
     14 N3        -18.8748    17.5165   -19.0433 N.4        1  LIG1  -0.3800
     15 H1        -19.1031    18.3370   -19.5843 H          1  LIG1   0.4200
     16 C10       -19.7147    17.4763   -17.8402 C.3        1  LIG1  -0.0200
     17 C11       -21.1906    17.5032   -18.2428 C.3        1  LIG1  -0.1400
     18 C12       -21.4967    16.2871   -19.1217 C.3        1  LIG1  -0.1400
     19 C13       -20.5636    16.2994   -20.3358 C.3        1  LIG1  -0.1500
     20 C14       -19.1112    16.3161   -19.8543 C.3        1  LIG1  -0.0200
     21 C15       -17.1127    16.3255   -17.8292 C.3        1  LIG1  -0.1400
     22 C16       -15.6396    16.3804   -17.4195 C.3        1  LIG1  -0.1200
     23 C17       -15.3907    17.6332   -16.5774 C.3        1  LIG1  -0.1300
     24 C18       -15.7384    18.8768   -17.3981 C.3        1  LIG1  -0.1200
     25 C19       -17.2116    18.8220   -17.8077 C.3        1  LIG1  -0.1300
     26 H2        -11.5746    24.3291   -22.6333 H          1  LIG1   0.1000
     27 H3        -12.0922    22.5384   -22.4769 H          1  LIG1   0.1000
     28 H4        -13.1795    24.6407   -24.3767 H          1  LIG1   0.1100
     29 H5        -13.7634    22.3211   -25.4054 H          1  LIG1   0.0800
     30 H6        -13.6914    21.6364   -23.7640 H          1  LIG1   0.0700
     31 H7        -15.5873    23.0800   -23.0785 H          1  LIG1   0.0800
     32 H8        -15.6593    23.7648   -24.7200 H          1  LIG1   0.0800
     33 H9        -17.3389    21.9634   -24.4325 H          1  LIG1   0.0800
     34 H10       -16.1142    21.5081   -25.6413 H          1  LIG1   0.0800
     35 H11       -15.2687    19.9095   -24.1093 H          1  LIG1   0.4200
     36 H12       -17.6052    19.4144   -20.3787 H          1  LIG1   0.4100
     37 H13       -16.7612    16.7221   -20.5031 H          1  LIG1   0.1200
     38 H14       -15.5344    17.6538   -19.6113 H          1  LIG1   0.1000
     39 H15       -19.5071    16.5627   -17.2830 H          1  LIG1   0.1300
     40 H16       -19.4935    18.3408   -17.2142 H          1  LIG1   0.1300
     41 H17       -21.8126    17.4715   -17.3482 H          1  LIG1   0.1100
     42 H18       -21.3995    18.4166   -18.7997 H          1  LIG1   0.0900
     43 H19       -21.3370    15.3738   -18.5484 H          1  LIG1   0.0800
     44 H20       -22.5327    16.3315   -19.4576 H          1  LIG1   0.1000
     45 H21       -20.7372    15.4071   -20.9375 H          1  LIG1   0.1100
     46 H22       -20.7594    17.1877   -20.9364 H          1  LIG1   0.0900
     47 H23       -18.4432    16.3247   -20.7157 H          1  LIG1   0.1300
     48 H24       -18.9175    15.4269   -19.2544 H          1  LIG1   0.1300
     49 H25       -17.7371    16.2931   -16.9364 H          1  LIG1   0.1000
     50 H26       -17.2900    15.4330   -18.4292 H          1  LIG1   0.0900
     51 H27       -15.3919    15.4944   -16.8349 H          1  LIG1   0.0900
     52 H28       -15.0151    16.4127   -18.3124 H          1  LIG1   0.0800
     53 H29       -16.0151    17.6008   -15.6846 H          1  LIG1   0.0700
     54 H30       -14.3411    17.6722   -16.2856 H          1  LIG1   0.0800
     55 H31       -15.5611    19.7694   -16.7981 H          1  LIG1   0.0900
     56 H32       -15.1140    18.9092   -18.2910 H          1  LIG1   0.0800
     57 H33       -17.4593    19.7080   -18.3924 H          1  LIG1   0.0900
     58 H34       -17.8359    18.7896   -16.9149 H          1  LIG1   0.1000
@<TRIPOS>BOND
     1    1    2 2
     2    1   26 1
     3    1   27 1
     4    2    3 1
     5    2   28 1
     6    3    4 1
     7    3   29 1
     8    3   30 1
     9    4    5 1
    10    4   31 1
    11    4   32 1
    12    5    6 1
    13    5   33 1
    14    5   34 1
    15    6    7 am
    16    6   35 1
    17    7    8 2
    18    7    9 1
    19    9   10 2
    20    9   11 am
    21   11   12 1
    22   11   36 1
    23   12   13 1
    24   12   37 1
    25   12   38 1
    26   13   25 1
    27   13   14 1
    28   13   21 1
    29   14   15 1
    30   14   20 1
    31   14   16 1
    32   16   17 1
    33   16   39 1
    34   16   40 1
    35   17   18 1
    36   17   41 1
    37   17   42 1
    38   18   19 1
    39   18   43 1
    40   18   44 1
    41   19   20 1
    42   19   45 1
    43   19   46 1
    44   20   47 1
    45   20   48 1
    46   21   22 1
    47   21   49 1
    48   21   50 1
    49   22   23 1
    50   22   51 1
    51   22   52 1
    52   23   24 1
    53   23   53 1
    54   23   54 1
    55   24   25 1
    56   24   55 1
    57   24   56 1
    58   25   57 1
    59   25   58 1
##########                 Name:     ZINC000641759985
##########          Protonation:                 none
##########               SMILES:   C=CCC[C@H](CO)[NH2+]CC1=CC=CC(F)=C1OCC(F)(F)F
##########            Long Name:   NO_LONG_NAME
##########          FlexRecCode: 1
##########               Number:                 8137
##########   Ligand Source File: /nfs/db/export/3D/DG/EDRO/DGEDRO.xcz.db2.gz
##########                 Rank:                    1
##########               Setnum:                  485
##########             Matchnum:                    1
##########                Cloud:                    1
##########        Electrostatic:           -35.840225
##########                 Gist:             0.000000
##########        Van der Waals:           -28.812717
##########  Ligand Polar Desolv:            13.667827
########## Ligand Apolar Desolv:            -4.017384
##########      Internal Energy:             0.000000
##########      Receptor Energy:             0.000000
########## Receptor Desolvation:             0.000000
########## Receptor Hydrophobic:             0.000000
##########         Total Energy:           -55.002495
##########        Ligand Charge:             1.000000
##########            Arbitrary:    +999.9990
##########        Ligand Energy:             0.000000

@<TRIPOS>MOLECULE
 ZINC000641759985      none
   42    42     0     0     0



@<TRIPOS>ATOM
      1 C1        -14.8461    17.5950   -15.2626 C.2        1  LIG1  -0.1700
      2 C2        -15.1098    16.3612   -15.6149 C.2        1  LIG1  -0.1700
      3 C3        -15.5800    16.0614   -17.0150 C.3        1  LIG1  -0.1100
      4 C4        -16.8865    16.8102   -17.2855 C.3        1  LIG1  -0.1400
      5 C5        -17.3637    16.5059   -18.7069 C.3        1  LIG1   0.0300
      6 H1        -17.1941    15.4524   -18.9293 H          1  LIG1   0.1500
      7 C6        -16.5853    17.3689   -19.7019 C.3        1  LIG1   0.0500
      8 O1        -17.1432    18.6844   -19.7297 O.3        1  LIG1  -0.5700
      9 N1        -18.7978    16.8047   -18.8165 N.4        1  LIG1  -0.5100
     10 H2        -19.3110    16.2356   -18.1603 H          1  LIG1   0.4300
     11 H3        -18.9548    17.7800   -18.6105 H          1  LIG1   0.4300
     12 C7        -19.2560    16.5125   -20.1813 C.3        1  LIG1   0.0400
     13 C8        -20.7273    16.8191   -20.2936 C.ar       1  LIG1  -0.1500
     14 C9        -21.6608    15.8398   -20.0128 C.ar       1  LIG1  -0.0800
     15 C10       -23.0109    16.1192   -20.1158 C.ar       1  LIG1  -0.0800
     16 C11       -23.4316    17.3788   -20.5000 C.ar       1  LIG1  -0.1100
     17 C12       -22.5015    18.3633   -20.7820 C.ar       1  LIG1   0.1100
     18 F1        -22.9121    19.5944   -21.1572 F          1  LIG1  -0.1100
     19 C13       -21.1447    18.0856   -20.6734 C.ar       1  LIG1   0.0700
     20 O2        -20.2278    19.0507   -20.9494 O.3        1  LIG1  -0.3200
     21 C14       -19.7771    19.1495   -22.3019 C.3        1  LIG1   0.0100
     22 C15       -18.7561    20.2832   -22.4176 C.3        1  LIG1   0.4700
     23 F2        -17.6668    20.0169   -21.5813 F          1  LIG1  -0.1600
     24 F3        -18.3148    20.3798   -23.7417 F          1  LIG1  -0.1600
     25 F4        -19.3533    21.4893   -22.0359 F          1  LIG1  -0.1800
     26 H4        -14.5092    17.8098   -14.2592 H          1  LIG1   0.1100
     27 H5        -14.9616    18.3969   -15.9766 H          1  LIG1   0.1000
     28 H6        -14.9901    15.5587   -14.9020 H          1  LIG1   0.1200
     29 H7        -14.8222    16.3832   -17.7294 H          1  LIG1   0.0900
     30 H8        -15.7469    14.9895   -17.1204 H          1  LIG1   0.0600
     31 H9        -17.6443    16.4885   -16.5711 H          1  LIG1   0.1000
     32 H10       -16.7194    17.8821   -17.1799 H          1  LIG1   0.1100
     33 H11       -15.5407    17.4238   -19.3960 H          1  LIG1   0.1000
     34 H12       -16.6502    16.9259   -20.6957 H          1  LIG1   0.0700
     35 H13       -18.0730    18.7118   -19.9945 H          1  LIG1   0.4100
     36 H14       -18.7015    17.1275   -20.8901 H          1  LIG1   0.1500
     37 H15       -19.0863    15.4590   -20.4037 H          1  LIG1   0.1300
     38 H16       -21.3353    14.8547   -19.7126 H          1  LIG1   0.1500
     39 H17       -23.7384    15.3518   -19.8960 H          1  LIG1   0.1600
     40 H18       -24.4868    17.5944   -20.5805 H          1  LIG1   0.1600
     41 H19       -19.3119    18.2099   -22.5994 H          1  LIG1   0.1200
     42 H20       -20.6258    19.3570   -22.9535 H          1  LIG1   0.1100
@<TRIPOS>BOND
     1    1    2 2
     2    1   26 1
     3    1   27 1
     4    2    3 1
     5    2   28 1
     6    3    4 1
     7    3   29 1
     8    3   30 1
     9    4    5 1
    10    4   31 1
    11    4   32 1
    12    5    6 1
    13    5    7 1
    14    5    9 1
    15    7    8 1
    16    7   33 1
    17    7   34 1
    18    8   35 1
    19    9   10 1
    20    9   11 1
    21    9   12 1
    22   12   13 1
    23   12   36 1
    24   12   37 1
    25   13   19 ar
    26   13   14 ar
    27   14   15 ar
    28   14   38 1
    29   15   16 ar
    30   15   39 1
    31   16   17 ar
    32   16   40 1
    33   17   18 1
    34   17   19 ar
    35   19   20 1
    36   20   21 1
    37   21   22 1
    38   21   41 1
    39   21   42 1
    40   22   23 1
    41   22   24 1
    42   22   25 1
##########                 Name:     ZINC000631091675
##########          Protonation:                 none
##########               SMILES:   O=S1(=O)CCC[C@@H]1C[NH2+]CC1=CC=CC(Br)=C1Cl
##########            Long Name:   NO_LONG_NAME
##########          FlexRecCode: 1
##########               Number:                 1347
##########   Ligand Source File: /nfs/db/export/3D/FF/ADRO/FFADRO.xbaw.db2.gz
##########                 Rank:                    1
##########               Setnum:                   59
##########             Matchnum:                    1
##########                Cloud:                    1
##########        Electrostatic:           -46.569775
##########                 Gist:             0.000000
##########        Van der Waals:           -24.072824
##########  Ligand Polar Desolv:            19.260929
########## Ligand Apolar Desolv:            -3.622859
##########      Internal Energy:             0.000000
##########      Receptor Energy:             0.000000
########## Receptor Desolvation:             0.000000
########## Receptor Hydrophobic:             0.000000
##########         Total Energy:           -55.004532
##########        Ligand Charge:             1.000000
##########            Arbitrary:    +999.9990
##########        Ligand Energy:             0.000000

@<TRIPOS>MOLECULE
 ZINC000631091675      none
   34    35     0     0     0



@<TRIPOS>ATOM
      1 O1        -17.8330    16.9324   -22.1743 O.2        1  LIG1  -0.9000
      2 S1        -18.0556    17.6766   -20.9844 S.o2       1  LIG1   2.3500
      3 O2        -17.2170    18.7807   -20.6729 O.2        1  LIG1  -0.9300
      4 C1        -19.8099    18.2033   -20.9165 C.3        1  LIG1  -0.5700
      5 C2        -20.4868    17.0262   -20.1680 C.3        1  LIG1  -0.1300
      6 C3        -19.5477    16.6420   -19.0112 C.3        1  LIG1  -0.1000
      7 C4        -18.1097    16.5346   -19.5564 C.3        1  LIG1  -0.6100
      8 H1        -17.9026    15.5145   -19.8796 H          1  LIG1   0.1700
      9 C5        -17.1028    16.9676   -18.4889 C.3        1  LIG1   0.0200
     10 N1        -16.8084    15.8323   -17.6043 N.4        1  LIG1  -0.5300
     11 H2        -17.6595    15.5237   -17.1587 H          1  LIG1   0.4300
     12 H3        -16.4192    15.0757   -18.1465 H          1  LIG1   0.4200
     13 C6        -15.8418    16.2480   -16.5794 C.3        1  LIG1   0.0400
     14 C7        -15.5397    15.0834   -15.6720 C.ar       1  LIG1  -0.1600
     15 C8        -16.1473    13.8614   -15.8902 C.ar       1  LIG1  -0.0600
     16 C9        -15.8710    12.7926   -15.0577 C.ar       1  LIG1  -0.1000
     17 C10       -14.9864    12.9450   -14.0068 C.ar       1  LIG1  -0.0400
     18 C11       -14.3771    14.1671   -13.7872 C.ar       1  LIG1  -0.0900
     19 Br1       -13.1667    14.3760   -12.3494 Br         1  LIG1   0.0100
     20 C12       -14.6496    15.2358   -14.6237 C.ar       1  LIG1  -0.0100
     21 Cl1       -13.8856    16.7704   -14.3494 Cl         1  LIG1  -0.0200
     22 H4        -19.9139    19.1308   -20.3534 H          1  LIG1   0.1500
     23 H5        -20.2208    18.3108   -21.9204 H          1  LIG1   0.1500
     24 H6        -21.4539    17.3404   -19.7752 H          1  LIG1   0.1200
     25 H7        -20.6145    16.1792   -20.8421 H          1  LIG1   0.1000
     26 H8        -19.5894    17.4069   -18.2357 H          1  LIG1   0.1000
     27 H9        -19.8538    15.6828   -18.5937 H          1  LIG1   0.1100
     28 H10       -16.1837    17.3011   -18.9703 H          1  LIG1   0.1500
     29 H11       -17.5235    17.7850   -17.9031 H          1  LIG1   0.1600
     30 H12       -14.9225    16.5815   -17.0607 H          1  LIG1   0.1500
     31 H13       -16.2623    17.0654   -15.9935 H          1  LIG1   0.1600
     32 H14       -16.8386    13.7415   -16.7112 H          1  LIG1   0.1500
     33 H15       -16.3468    11.8383   -15.2287 H          1  LIG1   0.1600
     34 H16       -14.7712    12.1098   -13.3568 H          1  LIG1   0.1600
@<TRIPOS>BOND
     1    1    2 2
     2    2    7 1
     3    2    3 2
     4    2    4 1
     5    4    5 1
     6    4   22 1
     7    4   23 1
     8    5    6 1
     9    5   24 1
    10    5   25 1
    11    6    7 1
    12    6   26 1
    13    6   27 1
    14    7    8 1
    15    7    9 1
    16    9   10 1
    17    9   28 1
    18    9   29 1
    19   10   11 1
    20   10   12 1
    21   10   13 1
    22   13   14 1
    23   13   30 1
    24   13   31 1
    25   14   20 ar
    26   14   15 ar
    27   15   16 ar
    28   15   32 1
    29   16   17 ar
    30   16   33 1
    31   17   18 ar
    32   17   34 1
    33   18   19 1
    34   18   20 ar
    35   20   21 1
##########                 Name:     ZINC000584683200
##########          Protonation:                 none
##########               SMILES:   CC1=C(CNC(=O)C[N@@H+]2CCCN3C4=CC=CC=C4C[C@H]3C2)SC=C1
##########            Long Name:   NO_LONG_NAME
##########          FlexRecCode: 1
##########               Number:                11345
##########   Ligand Source File: /nfs/db/export/3D/FF/ADRO/FFADRO.xbes.db2.gz
##########                 Rank:                    1
##########               Setnum:                  161
##########             Matchnum:                    1
##########                Cloud:                    1
##########        Electrostatic:           -32.550297
##########                 Gist:             0.000000
##########        Van der Waals:           -31.281164
##########  Ligand Polar Desolv:            13.144414
########## Ligand Apolar Desolv:            -4.311855
##########      Internal Energy:             0.000000
##########      Receptor Energy:             0.000000
########## Receptor Desolvation:             0.000000
########## Receptor Hydrophobic:             0.000000
##########         Total Energy:           -54.998901
##########        Ligand Charge:             1.000000
##########            Arbitrary:    +999.9990
##########        Ligand Energy:             0.000000

@<TRIPOS>MOLECULE
 ZINC000584683200      none
   51    54     0     0     0



@<TRIPOS>ATOM
      1 C1        -14.0621    15.1748   -13.3655 C.3        1  LIG1  -0.1000
      2 C2        -14.8042    14.0710   -14.0742 C.2        1  LIG1  -0.0600
      3 C3        -15.5757    14.2940   -15.1392 C.2        1  LIG1  -0.2400
      4 C4        -15.8129    15.6401   -15.7737 C.3        1  LIG1   0.2000
      5 N1        -16.7141    15.4885   -16.9186 N.am       1  LIG1  -0.7000
      6 C5        -16.6184    16.3293   -17.9676 C.2        1  LIG1   0.5000
      7 O1        -15.7861    17.2115   -17.9636 O.2        1  LIG1  -0.5200
      8 C6        -17.5455    16.1733   -19.1454 C.3        1  LIG1  -0.0400
      9 N2        -17.7765    17.4857   -19.7639 N.4        1  LIG1  -0.3700
     10 H1        -17.8752    18.1826   -19.0408 H          1  LIG1   0.4300
     11 C7        -18.9846    17.4373   -20.5472 C.3        1  LIG1  -0.0100
     12 C8        -19.6944    18.7810   -20.4249 C.3        1  LIG1  -0.1400
     13 C9        -19.2409    19.7857   -21.4080 C.3        1  LIG1   0.0400
     14 N3        -17.7895    20.0159   -21.2018 N.pl3      1  LIG1  -0.4800
     15 C10       -17.3976    21.1693   -21.8992 C.ar       1  LIG1   0.0800
     16 C11       -18.0393    22.3967   -22.0388 C.ar       1  LIG1  -0.1200
     17 C12       -17.4578    23.4008   -22.7859 C.ar       1  LIG1  -0.0900
     18 C13       -16.2357    23.1940   -23.3988 C.ar       1  LIG1  -0.1300
     19 C14       -15.5913    21.9771   -23.2622 C.ar       1  LIG1  -0.0800
     20 C15       -16.1672    20.9710   -22.5168 C.ar       1  LIG1  -0.1400
     21 C16       -15.7058    19.5637   -22.1917 C.3        1  LIG1  -0.0800
     22 C17       -16.9973    18.9049   -21.6435 C.3        1  LIG1   0.0500
     23 H2        -17.5128    18.4168   -22.4706 H          1  LIG1   0.0800
     24 C18       -16.6125    17.8349   -20.6310 C.3        1  LIG1   0.0200
     25 S1        -16.2733    12.7763   -15.6903 S.3        1  LIG1   0.1200
     26 C19       -15.4538    11.8985   -14.4052 C.2        1  LIG1  -0.1900
     27 C20       -14.7323    12.7482   -13.6727 C.2        1  LIG1  -0.1400
     28 H3        -14.2694    16.1255   -13.8566 H          1  LIG1   0.0700
     29 H4        -14.3888    15.2236   -12.3268 H          1  LIG1   0.0700
     30 H5        -12.9915    14.9736   -13.4006 H          1  LIG1   0.0800
     31 H6        -16.2635    16.3119   -15.0430 H          1  LIG1   0.0900
     32 H7        -14.8631    16.0551   -16.1113 H          1  LIG1   0.1000
     33 H8        -17.3798    14.7829   -16.9218 H          1  LIG1   0.4100
     34 H9        -17.0949    15.5016   -19.8760 H          1  LIG1   0.1600
     35 H10       -18.4952    15.7584   -18.8077 H          1  LIG1   0.1600
     36 H11       -18.7364    17.2479   -21.5915 H          1  LIG1   0.1300
     37 H12       -19.6327    16.6452   -20.1724 H          1  LIG1   0.1400
     38 H13       -20.7647    18.6227   -20.5575 H          1  LIG1   0.1100
     39 H14       -19.5254    19.1741   -19.4223 H          1  LIG1   0.1000
     40 H15       -19.4145    19.4155   -22.4184 H          1  LIG1   0.0700
     41 H16       -19.7857    20.7179   -21.2588 H          1  LIG1   0.1100
     42 H17       -18.9940    22.5632   -21.5622 H          1  LIG1   0.1300
     43 H18       -17.9592    24.3513   -22.8925 H          1  LIG1   0.1300
     44 H19       -15.7846    23.9816   -23.9839 H          1  LIG1   0.1300
     45 H20       -14.6366    21.8155   -23.7404 H          1  LIG1   0.1300
     46 H21       -15.3619    19.0518   -23.0905 H          1  LIG1   0.1000
     47 H22       -14.9256    19.5783   -21.4308 H          1  LIG1   0.1000
     48 H23       -15.8018    18.2076   -20.0051 H          1  LIG1   0.1400
     49 H24       -16.2761    16.9436   -21.1606 H          1  LIG1   0.1400
     50 H25       -15.5207    10.8337   -14.2378 H          1  LIG1   0.1700
     51 H26       -14.1430    12.4295   -12.8256 H          1  LIG1   0.1500
@<TRIPOS>BOND
     1    1    2 1
     2    1   28 1
     3    1   29 1
     4    1   30 1
     5    2   27 1
     6    2    3 2
     7    3    4 1
     8    3   25 1
     9    4    5 1
    10    4   31 1
    11    4   32 1
    12    5    6 am
    13    5   33 1
    14    6    7 2
    15    6    8 1
    16    8    9 1
    17    8   34 1
    18    8   35 1
    19    9   10 1
    20    9   24 1
    21    9   11 1
    22   11   12 1
    23   11   36 1
    24   11   37 1
    25   12   13 1
    26   12   38 1
    27   12   39 1
    28   13   14 1
    29   13   40 1
    30   13   41 1
    31   14   22 1
    32   14   15 1
    33   15   20 ar
    34   15   16 ar
    35   16   17 ar
    36   16   42 1
    37   17   18 ar
    38   17   43 1
    39   18   19 ar
    40   18   44 1
    41   19   20 ar
    42   19   45 1
    43   20   21 1
    44   21   22 1
    45   21   46 1
    46   21   47 1
    47   22   23 1
    48   22   24 1
    49   24   48 1
    50   24   49 1
    51   25   26 1
    52   26   27 2
    53   26   50 1
    54   27   51 1
##########                 Name:     ZINC000527764590
##########          Protonation:                 none
##########               SMILES:   CN1C=C2C=CC(C[NH2+]CC3=CC=CC=C3C3CC3)=CC2=N1
##########            Long Name:   NO_LONG_NAME
##########          FlexRecCode: 1
##########               Number:                 7259
##########   Ligand Source File: /nfs/db/export/3D/CH/ADRO/CHADRO.xfz.db2.gz
##########                 Rank:                    1
##########               Setnum:                  137
##########             Matchnum:                    1
##########                Cloud:                    1
##########        Electrostatic:           -37.883942
##########                 Gist:             0.000000
##########        Van der Waals:           -28.649698
##########  Ligand Polar Desolv:            16.747412
########## Ligand Apolar Desolv:            -5.218260
##########      Internal Energy:             0.000000
##########      Receptor Energy:             0.000000
########## Receptor Desolvation:             0.000000
########## Receptor Hydrophobic:             0.000000
##########         Total Energy:           -55.004486
##########        Ligand Charge:             1.000000
##########            Arbitrary:    +999.9990
##########        Ligand Energy:             0.000000

@<TRIPOS>MOLECULE
 ZINC000527764590      none
   44    47     0     0     0



@<TRIPOS>ATOM
      1 C1        -13.0181    21.7851   -17.0100 C.3        1  LIG1   0.0800
      2 N1        -13.7168    20.6667   -17.6483 N.pl3      1  LIG1  -0.3100
      3 C2        -13.7584    20.4385   -18.9680 C.2        1  LIG1   0.0900
      4 C3        -14.5089    19.2968   -19.1785 C.ar       1  LIG1  -0.2100
      5 C4        -14.9061    18.5634   -20.3169 C.ar       1  LIG1  -0.0100
      6 C5        -15.6676    17.4512   -20.1637 C.ar       1  LIG1  -0.1700
      7 C6        -16.0735    17.0069   -18.9032 C.ar       1  LIG1  -0.1100
      8 C7        -16.9189    15.7635   -18.8019 C.3        1  LIG1   0.0400
      9 N2        -18.3397    16.1309   -18.8662 N.4        1  LIG1  -0.5100
     10 H1        -18.9059    15.2984   -18.7984 H          1  LIG1   0.4300
     11 H2        -18.5615    16.7516   -18.1021 H          1  LIG1   0.4300
     12 C8        -18.6136    16.8068   -20.1413 C.3        1  LIG1   0.0400
     13 C9        -20.0713    17.1837   -20.2072 C.ar       1  LIG1  -0.1600
     14 C10       -21.0384    16.2737   -19.8236 C.ar       1  LIG1  -0.0800
     15 C11       -22.3756    16.6195   -19.8840 C.ar       1  LIG1  -0.1200
     16 C12       -22.7453    17.8752   -20.3277 C.ar       1  LIG1  -0.0800
     17 C13       -21.7780    18.7857   -20.7106 C.ar       1  LIG1  -0.1200
     18 C14       -20.4409    18.4415   -20.6461 C.ar       1  LIG1  -0.0200
     19 C15       -19.3864    19.4340   -21.0634 C.3        1  LIG1  -0.1600
     20 C16       -18.8136    19.3039   -22.4761 C.3        1  LIG1  -0.1600
     21 C17       -19.7633    20.4551   -22.1388 C.3        1  LIG1  -0.1700
     22 C18       -15.7274    17.6634   -17.7679 C.ar       1  LIG1  -0.0500
     23 C19       -14.9362    18.8294   -17.8504 C.ar       1  LIG1   0.0900
     24 N3        -14.4343    19.6753   -16.9692 N.2        1  LIG1  -0.2900
     25 H3        -12.5450    22.4017   -17.7743 H          1  LIG1   0.0900
     26 H4        -13.7328    22.3872   -16.4488 H          1  LIG1   0.1000
     27 H5        -12.2570    21.3989   -16.3321 H          1  LIG1   0.1000
     28 H6        -13.2892    21.0405   -19.7321 H          1  LIG1   0.2000
     29 H7        -14.6061    18.8855   -21.3032 H          1  LIG1   0.1300
     30 H8        -15.9681    16.8951   -21.0394 H          1  LIG1   0.1300
     31 H9        -16.6793    15.0930   -19.6272 H          1  LIG1   0.1400
     32 H10       -16.7158    15.2620   -17.8557 H          1  LIG1   0.1400
     33 H11       -18.0022    17.7061   -20.2146 H          1  LIG1   0.1400
     34 H12       -18.3740    16.1363   -20.9667 H          1  LIG1   0.1400
     35 H13       -20.7494    15.2926   -19.4769 H          1  LIG1   0.1300
     36 H14       -23.1313    15.9083   -19.5849 H          1  LIG1   0.1400
     37 H15       -23.7900    18.1450   -20.3756 H          1  LIG1   0.1400
     38 H16       -22.0669    19.7667   -21.0576 H          1  LIG1   0.1400
     39 H17       -18.7100    19.7611   -20.2738 H          1  LIG1   0.1100
     40 H18       -17.7599    19.5453   -22.6162 H          1  LIG1   0.1100
     41 H19       -19.1994    18.5006   -23.1037 H          1  LIG1   0.1100
     42 H20       -20.7739    20.4089   -22.5444 H          1  LIG1   0.1000
     43 H21       -19.3345    21.4538   -22.0568 H          1  LIG1   0.1100
     44 H22       -16.0558    17.2966   -16.8067 H          1  LIG1   0.1400
@<TRIPOS>BOND
     1    1    2 1
     2    1   25 1
     3    1   26 1
     4    1   27 1
     5    2   24 1
     6    2    3 1
     7    3    4 2
     8    3   28 1
     9    4   23 ar
    10    4    5 ar
    11    5    6 ar
    12    5   29 1
    13    6    7 ar
    14    6   30 1
    15    7    8 1
    16    7   22 ar
    17    8    9 1
    18    8   31 1
    19    8   32 1
    20    9   10 1
    21    9   11 1
    22    9   12 1
    23   12   13 1
    24   12   33 1
    25   12   34 1
    26   13   18 ar
    27   13   14 ar
    28   14   15 ar
    29   14   35 1
    30   15   16 ar
    31   15   36 1
    32   16   17 ar
    33   16   37 1
    34   17   18 ar
    35   17   38 1
    36   18   19 1
    37   19   21 1
    38   19   20 1
    39   19   39 1
    40   20   21 1
    41   20   40 1
    42   20   41 1
    43   21   42 1
    44   21   43 1
    45   22   23 ar
    46   22   44 1
    47   23   24 2
##########                 Name:     ZINC000266211012
##########          Protonation:                 none
##########               SMILES:   CC[C@@H](C)NC(=O)C[N@H+]1CCC[C@H](C2=NNC(C(N)=O)=C2)C1
##########            Long Name:   NO_LONG_NAME
##########          FlexRecCode: 1
##########               Number:                12146
##########   Ligand Source File: /nfs/db/export/3D/DC/ADMO/DCADMO.xkw.db2.gz
##########                 Rank:                    1
##########               Setnum:                  100
##########             Matchnum:                    1
##########                Cloud:                    1
##########        Electrostatic:           -42.613670
##########                 Gist:             0.000000
##########        Van der Waals:           -27.505085
##########  Ligand Polar Desolv:            16.580540
########## Ligand Apolar Desolv:            -1.462772
##########      Internal Energy:             0.000000
##########      Receptor Energy:             0.000000
########## Receptor Desolvation:             0.000000
########## Receptor Hydrophobic:             0.000000
##########         Total Energy:           -55.000992
##########        Ligand Charge:             1.000000
##########            Arbitrary:    +999.9990
##########        Ligand Energy:             0.000000

@<TRIPOS>MOLECULE
 ZINC000266211012      none
   48    49     0     0     0



@<TRIPOS>ATOM
      1 C1        -14.4375    16.6410   -15.2251 C.3        1  LIG1  -0.1600
      2 C2        -15.9242    16.3245   -15.3994 C.3        1  LIG1  -0.1400
      3 C3        -16.3936    16.8192   -16.7691 C.3        1  LIG1   0.1400
      4 H1        -16.2409    17.8962   -16.8383 H          1  LIG1   0.1000
      5 C4        -15.5907    16.1186   -17.8670 C.3        1  LIG1  -0.1700
      6 N1        -17.8171    16.5161   -16.9362 N.am       1  LIG1  -0.7000
      7 C5        -18.5911    17.3140   -17.6982 C.2        1  LIG1   0.5000
      8 O1        -18.1090    18.2830   -18.2458 O.2        1  LIG1  -0.5300
      9 C6        -20.0554    17.0022   -17.8702 C.3        1  LIG1  -0.0500
     10 N2        -20.2360    16.1270   -19.0361 N.4        1  LIG1  -0.3600
     11 H2        -19.7234    15.2696   -18.8943 H          1  LIG1   0.4300
     12 C7        -21.6622    15.8213   -19.2004 C.3        1  LIG1  -0.0200
     13 C8        -22.4544    17.1233   -19.3365 C.3        1  LIG1  -0.1400
     14 C9        -21.9518    17.8946   -20.5604 C.3        1  LIG1  -0.1300
     15 C10       -20.4479    18.1429   -20.4128 C.3        1  LIG1  -0.0100
     16 H3        -20.2666    18.7706   -19.5402 H          1  LIG1   0.1100
     17 C11       -19.9287    18.8347   -21.6468 C.2        1  LIG1   0.0100
     18 N3        -20.4064    18.7100   -22.8588 N.2        1  LIG1  -0.2500
     19 N4        -19.7434    19.4309   -23.6897 N.pl3      1  LIG1  -0.3600
     20 C12       -18.7498    20.0958   -23.0291 C.2        1  LIG1  -0.0300
     21 C13       -17.7675    21.0229   -23.6132 C.2        1  LIG1   0.5900
     22 N5        -16.8408    21.6059   -22.8271 N.am       1  LIG1  -0.8500
     23 O2        -17.7917    21.2630   -24.8053 O.2        1  LIG1  -0.5100
     24 C14       -18.8558    19.7275   -21.6991 C.2        1  LIG1  -0.1400
     25 C15       -19.7317    16.8039   -20.2369 C.3        1  LIG1   0.0000
     26 H4        -14.1030    16.2886   -14.2493 H          1  LIG1   0.0600
     27 H5        -13.8655    16.1419   -16.0072 H          1  LIG1   0.0500
     28 H6        -14.2847    17.7180   -15.2943 H          1  LIG1   0.0600
     29 H7        -16.0769    15.2475   -15.3302 H          1  LIG1   0.0900
     30 H8        -16.4961    16.8237   -14.6173 H          1  LIG1   0.0700
     31 H9        -15.9251    16.4710   -18.8427 H          1  LIG1   0.0600
     32 H10       -14.5317    16.3444   -17.7428 H          1  LIG1   0.0600
     33 H11       -15.7433    15.0417   -17.7978 H          1  LIG1   0.0800
     34 H12       -18.2027    15.7412   -16.4982 H          1  LIG1   0.4100
     35 H13       -20.4272    16.4994   -16.9774 H          1  LIG1   0.1600
     36 H14       -20.6087    17.9290   -18.0223 H          1  LIG1   0.1600
     37 H15       -21.8028    15.2156   -20.0956 H          1  LIG1   0.1400
     38 H16       -22.0177    15.2696   -18.3301 H          1  LIG1   0.1500
     39 H17       -23.5129    16.8941   -19.4602 H          1  LIG1   0.1200
     40 H18       -22.3148    17.7297   -18.4416 H          1  LIG1   0.0800
     41 H19       -22.1380    17.3100   -21.4614 H          1  LIG1   0.0900
     42 H20       -22.4739    18.8489   -20.6295 H          1  LIG1   0.1000
     43 H21       -19.9213    19.4936   -24.6412 H          1  LIG1   0.4500
     44 H22       -16.8214    21.4144   -21.8763 H          1  LIG1   0.4000
     45 H23       -16.1933    22.2170   -23.2120 H          1  LIG1   0.4200
     46 H24       -18.2360    20.0552   -20.8776 H          1  LIG1   0.1700
     47 H25       -18.6606    16.9763   -20.1317 H          1  LIG1   0.1300
     48 H26       -19.9139    16.1775   -21.1103 H          1  LIG1   0.1400
@<TRIPOS>BOND
     1    1    2 1
     2    1   26 1
     3    1   27 1
     4    1   28 1
     5    2    3 1
     6    2   29 1
     7    2   30 1
     8    3    4 1
     9    3    5 1
    10    3    6 1
    11    5   31 1
    12    5   32 1
    13    5   33 1
    14    6    7 am
    15    6   34 1
    16    7    8 2
    17    7    9 1
    18    9   10 1
    19    9   35 1
    20    9   36 1
    21   10   11 1
    22   10   25 1
    23   10   12 1
    24   12   13 1
    25   12   37 1
    26   12   38 1
    27   13   14 1
    28   13   39 1
    29   13   40 1
    30   14   15 1
    31   14   41 1
    32   14   42 1
    33   15   16 1
    34   15   17 1
    35   15   25 1
    36   17   24 1
    37   17   18 2
    38   18   19 1
    39   19   20 1
    40   19   43 1
    41   20   21 1
    42   20   24 2
    43   21   22 am
    44   21   23 2
    45   22   44 1
    46   22   45 1
    47   24   46 1
    48   25   47 1
    49   25   48 1
##########                 Name:     ZINC000331207634
##########          Protonation:                 none
##########               SMILES:   CC[N@@H+]1CC[C@H](N(C)C(=O)NC2=CC=CC(C#N)=C2C)C[C@@H]1C
##########            Long Name:   NO_LONG_NAME
##########          FlexRecCode: 1
##########               Number:                 9993
##########   Ligand Source File: /nfs/db/export/3D/DG/EDRO/DGEDRO.xda.db2.gz
##########                 Rank:                    1
##########               Setnum:                   25
##########             Matchnum:                    1
##########                Cloud:                    1
##########        Electrostatic:           -29.666775
##########                 Gist:             0.000000
##########        Van der Waals:           -33.071026
##########  Ligand Polar Desolv:            13.295797
########## Ligand Apolar Desolv:            -5.560030
##########      Internal Energy:             0.000000
##########      Receptor Energy:             0.000000
########## Receptor Desolvation:             0.000000
########## Receptor Hydrophobic:             0.000000
##########         Total Energy:           -55.002033
##########        Ligand Charge:             1.000000
##########            Arbitrary:    +999.9990
##########        Ligand Energy:             0.000000

@<TRIPOS>MOLECULE
 ZINC000331207634      none
   50    51     0     0     0



@<TRIPOS>ATOM
      1 C1        -21.2493    17.9790   -19.1776 C.3        1  LIG1  -0.1900
      2 C2        -20.3052    17.9766   -17.9736 C.3        1  LIG1  -0.0100
      3 N1        -18.9274    18.2003   -18.4314 N.4        1  LIG1  -0.3900
      4 H1        -18.8708    19.0910   -18.9020 H          1  LIG1   0.4200
      5 C3        -18.5429    17.1319   -19.3617 C.3        1  LIG1  -0.0200
      6 C4        -17.1382    17.4037   -19.9040 C.3        1  LIG1  -0.1400
      7 C5        -16.1465    17.4488   -18.7380 C.3        1  LIG1   0.1500
      8 H2        -15.1540    17.6980   -19.1130 H          1  LIG1   0.1100
      9 N2        -16.1068    16.1414   -18.0780 N.am       1  LIG1  -0.6300
     10 C6        -16.3651    14.9232   -18.8496 C.3        1  LIG1   0.0500
     11 C7        -15.8327    16.0594   -16.7609 C.2        1  LIG1   0.7000
     12 O1        -15.1171    16.8906   -16.2361 O.2        1  LIG1  -0.5600
     13 N3        -16.3518    15.0562   -16.0258 N.am       1  LIG1  -0.6800
     14 C8        -15.6555    14.5716   -14.9124 C.ar       1  LIG1   0.1400
     15 C9        -14.8319    15.4215   -14.1843 C.ar       1  LIG1  -0.0900
     16 C10       -14.1418    14.9482   -13.0837 C.ar       1  LIG1  -0.1000
     17 C11       -14.2662    13.6286   -12.7007 C.ar       1  LIG1  -0.0700
     18 C12       -15.0919    12.7661   -13.4255 C.ar       1  LIG1  -0.0100
     19 C13       -15.2230    11.3960   -13.0304 C.1        1  LIG1   0.2400
     20 N4        -15.3270    10.3090   -12.7170 N.1        1  LIG1  -0.4000
     21 C14       -15.7921    13.2455   -14.5329 C.ar       1  LIG1  -0.0600
     22 C15       -16.6855    12.3219   -15.3203 C.3        1  LIG1  -0.1300
     23 C16       -16.5988    18.5160   -17.7370 C.3        1  LIG1  -0.1500
     24 C17       -18.0233    18.2012   -17.2752 C.3        1  LIG1   0.0300
     25 H3        -18.3492    18.9585   -16.5621 H          1  LIG1   0.1300
     26 C18       -18.0493    16.8260   -16.6051 C.3        1  LIG1  -0.2100
     27 H4        -22.2717    17.8131   -18.8379 H          1  LIG1   0.1000
     28 H5        -21.1871    18.9411   -19.6863 H          1  LIG1   0.0800
     29 H6        -20.9619    17.1846   -19.8664 H          1  LIG1   0.0800
     30 H7        -20.5927    18.7710   -17.2849 H          1  LIG1   0.1300
     31 H8        -20.3675    17.0146   -17.4650 H          1  LIG1   0.1200
     32 H9        -18.5514    16.1754   -18.8391 H          1  LIG1   0.1500
     33 H10       -19.2515    17.0990   -20.1893 H          1  LIG1   0.1300
     34 H11       -16.8539    16.6085   -20.5931 H          1  LIG1   0.1500
     35 H12       -17.1287    18.3600   -20.4271 H          1  LIG1   0.0800
     36 H13       -16.2923    14.0554   -18.1939 H          1  LIG1   0.0700
     37 H14       -17.3655    14.9707   -19.2797 H          1  LIG1   0.0800
     38 H15       -15.6295    14.8369   -19.6494 H          1  LIG1   0.0900
     39 H16       -17.2078    14.6699   -16.2683 H          1  LIG1   0.4100
     40 H17       -14.7301    16.4554   -14.4794 H          1  LIG1   0.1500
     41 H18       -13.5030    15.6136   -12.5221 H          1  LIG1   0.1400
     42 H19       -13.7250    13.2625   -11.8408 H          1  LIG1   0.1400
     43 H20       -16.6647    11.3279   -14.8735 H          1  LIG1   0.0800
     44 H21       -17.7059    12.7049   -15.3073 H          1  LIG1   0.0700
     45 H22       -16.3320    12.2647   -16.3499 H          1  LIG1   0.0800
     46 H23       -15.9289    18.5157   -16.8772 H          1  LIG1   0.1100
     47 H24       -16.5780    19.4953   -18.2150 H          1  LIG1   0.1000
     48 H25       -17.3777    16.8274   -15.7465 H          1  LIG1   0.1100
     49 H26       -19.0631    16.6028   -16.2728 H          1  LIG1   0.0700
     50 H27       -17.7256    16.0680   -17.3183 H          1  LIG1   0.0900
@<TRIPOS>BOND
     1    1    2 1
     2    1   27 1
     3    1   28 1
     4    1   29 1
     5    2    3 1
     6    2   30 1
     7    2   31 1
     8    3    4 1
     9    3   24 1
    10    3    5 1
    11    5    6 1
    12    5   32 1
    13    5   33 1
    14    6    7 1
    15    6   34 1
    16    6   35 1
    17    7    8 1
    18    7    9 1
    19    7   23 1
    20    9   10 1
    21    9   11 am
    22   10   36 1
    23   10   37 1
    24   10   38 1
    25   11   12 2
    26   11   13 am
    27   13   14 1
    28   13   39 1
    29   14   21 ar
    30   14   15 ar
    31   15   16 ar
    32   15   40 1
    33   16   17 ar
    34   16   41 1
    35   17   18 ar
    36   17   42 1
    37   18   19 1
    38   18   21 ar
    39   19   20 3
    40   21   22 1
    41   22   43 1
    42   22   44 1
    43   22   45 1
    44   23   24 1
    45   23   46 1
    46   23   47 1
    47   24   25 1
    48   24   26 1
    49   26   48 1
    50   26   49 1
    51   26   50 1
##########                 Name:     ZINC000375831418
##########          Protonation:                 none
##########               SMILES:   CC1=CC=C(C2CC([NH2+]C[C@H]3CCC[C@]34NC(=O)N(C)C4=O)C2)C=C1
##########            Long Name:   NO_LONG_NAME
##########          FlexRecCode: 1
##########               Number:                10420
##########   Ligand Source File: /nfs/db/export/3D/EF/ADRO/EFADRO.xady.db2.gz
##########                 Rank:                    1
##########               Setnum:                   18
##########             Matchnum:                    1
##########                Cloud:                    1
##########        Electrostatic:           -38.565712
##########                 Gist:             0.000000
##########        Van der Waals:           -29.950508
##########  Ligand Polar Desolv:            18.370327
########## Ligand Apolar Desolv:            -4.853758
##########      Internal Energy:             0.000000
##########      Receptor Energy:             0.000000
########## Receptor Desolvation:             0.000000
########## Receptor Hydrophobic:             0.000000
##########         Total Energy:           -54.999649
##########        Ligand Charge:             1.000000
##########            Arbitrary:    +999.9990
##########        Ligand Energy:             0.000000

@<TRIPOS>MOLECULE
 ZINC000375831418      none
   53    56     0     0     0



@<TRIPOS>ATOM
      1 C1        -15.1445    10.6386   -12.6628 C.3        1  LIG1  -0.1200
      2 C2        -15.2418    11.9746   -13.3533 C.ar       1  LIG1  -0.0700
      3 C3        -16.1359    12.1521   -14.3925 C.ar       1  LIG1  -0.1100
      4 C4        -16.2251    13.3776   -15.0258 C.ar       1  LIG1  -0.1000
      5 C5        -15.4204    14.4256   -14.6199 C.ar       1  LIG1  -0.1000
      6 C6        -15.5173    15.7614   -15.3107 C.3        1  LIG1  -0.0500
      7 C7        -15.7479    15.6554   -16.8274 C.3        1  LIG1  -0.1400
      8 C8        -16.7181    16.8398   -16.6834 C.3        1  LIG1  -0.0100
      9 N1        -17.9299    16.7108   -17.5035 N.4        1  LIG1  -0.5000
     10 H1        -18.2500    15.7542   -17.4827 H          1  LIG1   0.4300
     11 H2        -18.6503    17.3145   -17.1365 H          1  LIG1   0.4300
     12 C9        -17.6272    17.0958   -18.8884 C.3        1  LIG1  -0.0200
     13 C10       -18.8893    16.9615   -19.7427 C.3        1  LIG1  -0.1100
     14 H3        -19.0499    15.9209   -20.0246 H          1  LIG1   0.1200
     15 C11       -20.1222    17.5153   -18.9822 C.3        1  LIG1  -0.1400
     16 C12       -21.0972    17.8846   -20.1286 C.3        1  LIG1  -0.1200
     17 C13       -20.1814    18.4427   -21.2406 C.3        1  LIG1  -0.1200
     18 C14       -18.7909    17.8481   -20.9913 C.3        1  LIG1   0.1300
     19 N2        -18.3182    17.0883   -22.1502 N.am       1  LIG1  -0.7200
     20 C15       -17.1731    17.6793   -22.5468 C.2        1  LIG1   0.7000
     21 O1        -16.5092    17.3011   -23.4919 O.2        1  LIG1  -0.5200
     22 N3        -16.8499    18.7302   -21.7821 N.am       1  LIG1  -0.5800
     23 C16       -15.6591    19.5595   -21.9827 C.3        1  LIG1   0.0800
     24 C17       -17.7588    18.9308   -20.8036 C.2        1  LIG1   0.5200
     25 O2        -17.7472    19.7967   -19.9551 O.2        1  LIG1  -0.4500
     26 C18       -16.9133    16.4006   -15.2226 C.3        1  LIG1  -0.1400
     27 C19       -14.5272    14.2486   -13.5798 C.ar       1  LIG1  -0.1200
     28 C20       -14.4407    13.0242   -12.9439 C.ar       1  LIG1  -0.1200
     29 H4        -15.8470     9.9415   -13.1196 H          1  LIG1   0.0800
     30 H5        -14.1308    10.2507   -12.7630 H          1  LIG1   0.0700
     31 H6        -15.3854    10.7572   -11.6064 H          1  LIG1   0.0700
     32 H7        -16.7646    11.3332   -14.7096 H          1  LIG1   0.1300
     33 H8        -16.9233    13.5159   -15.8382 H          1  LIG1   0.1300
     34 H9        -14.7088    16.4392   -15.0369 H          1  LIG1   0.1200
     35 H10       -14.8630    15.8855   -17.4207 H          1  LIG1   0.1100
     36 H11       -16.2332    14.7279   -17.1314 H          1  LIG1   0.1100
     37 H12       -16.2379    17.8127   -16.7878 H          1  LIG1   0.1600
     38 H13       -17.2814    18.1294   -18.9111 H          1  LIG1   0.1500
     39 H14       -16.8490    16.4436   -19.2851 H          1  LIG1   0.1300
     40 H15       -20.5551    16.7490   -18.3391 H          1  LIG1   0.0900
     41 H16       -19.8538    18.3994   -18.4040 H          1  LIG1   0.0900
     42 H17       -21.6266    16.9986   -20.4794 H          1  LIG1   0.0800
     43 H18       -21.8035    18.6462   -19.7982 H          1  LIG1   0.0900
     44 H19       -20.5490    18.1333   -22.2190 H          1  LIG1   0.1000
     45 H20       -20.1412    19.5304   -21.1819 H          1  LIG1   0.0900
     46 H21       -18.7438    16.3149   -22.5522 H          1  LIG1   0.4500
     47 H22       -15.6318    20.3449   -21.2273 H          1  LIG1   0.1000
     48 H23       -14.7662    18.9404   -21.8955 H          1  LIG1   0.0900
     49 H24       -15.6931    20.0103   -22.9745 H          1  LIG1   0.0800
     50 H25       -17.7171    15.6769   -15.0879 H          1  LIG1   0.1100
     51 H26       -16.9692    17.2323   -14.5204 H          1  LIG1   0.1100
     52 H27       -13.8988    15.0675   -13.2624 H          1  LIG1   0.1100
     53 H28       -13.7429    12.8858   -12.1313 H          1  LIG1   0.1300
@<TRIPOS>BOND
     1    1    2 1
     2    1   29 1
     3    1   30 1
     4    1   31 1
     5    2   28 ar
     6    2    3 ar
     7    3    4 ar
     8    3   32 1
     9    4    5 ar
    10    4   33 1
    11    5    6 1
    12    5   27 ar
    13    6   26 1
    14    6    7 1
    15    6   34 1
    16    7    8 1
    17    7   35 1
    18    7   36 1
    19    8    9 1
    20    8   26 1
    21    8   37 1
    22    9   10 1
    23    9   11 1
    24    9   12 1
    25   12   13 1
    26   12   38 1
    27   12   39 1
    28   13   14 1
    29   13   18 1
    30   13   15 1
    31   15   16 1
    32   15   40 1
    33   15   41 1
    34   16   17 1
    35   16   42 1
    36   16   43 1
    37   17   18 1
    38   17   44 1
    39   17   45 1
    40   18   24 1
    41   18   19 1
    42   19   20 am
    43   19   46 1
    44   20   21 2
    45   20   22 am
    46   22   23 1
    47   22   24 am
    48   23   47 1
    49   23   48 1
    50   23   49 1
    51   24   25 2
    52   26   50 1
    53   26   51 1
    54   27   28 ar
    55   27   52 1
    56   28   53 1
##########                 Name:     ZINC000431486198
##########          Protonation:                 none
##########               SMILES:   O=C(CNC1=CC=NC=C1[N+](=O)[O-])NCC[NH+]1CCCCCC1
##########            Long Name:   NO_LONG_NAME
##########          FlexRecCode: 1
##########               Number:                  955
##########   Ligand Source File: /nfs/db/export/3D/DC/BDRO/DCBDRO.xac.db2.gz
##########                 Rank:                    1
##########               Setnum:                  142
##########             Matchnum:                    1
##########                Cloud:                    1
##########        Electrostatic:           -44.991070
##########                 Gist:             0.000000
##########        Van der Waals:           -31.473518
##########  Ligand Polar Desolv:            24.772999
########## Ligand Apolar Desolv:            -3.307403
##########      Internal Energy:             0.000000
##########      Receptor Energy:             0.000000
########## Receptor Desolvation:             0.000000
########## Receptor Hydrophobic:             0.000000
##########         Total Energy:           -54.998989
##########        Ligand Charge:             1.000000
##########            Arbitrary:    +999.9990
##########        Ligand Energy:             0.000000

@<TRIPOS>MOLECULE
 ZINC000431486198      none
   47    48     0     0     0



@<TRIPOS>ATOM
      1 O1        -16.3767    16.6115   -16.6246 O.2        1  LIG1  -0.5000
      2 C1        -16.3881    15.4890   -17.0834 C.2        1  LIG1   0.5200
      3 C2        -16.1263    14.3058   -16.1873 C.3        1  LIG1   0.0900
      4 N1        -15.2327    14.7068   -15.0979 N.pl3      1  LIG1  -0.7000
      5 C3        -14.8461    13.7770   -14.1372 C.ar       1  LIG1   0.3100
      6 C4        -15.2940    12.4577   -14.1973 C.ar       1  LIG1  -0.2600
      7 C5        -14.8878    11.5672   -13.2257 C.ar       1  LIG1   0.1900
      8 N2        -14.0866    11.9503   -12.2493 N.ar       1  LIG1  -0.5100
      9 C6        -13.6412    13.1895   -12.1576 C.ar       1  LIG1   0.2300
     10 C7        -13.9960    14.1391   -13.0922 C.ar       1  LIG1  -0.1800
     11 N3        -13.4914    15.5260   -12.9815 N.pl3      1  LIG1   0.0500
     12 O2        -13.8180    16.3607   -13.8063 O.2        1  LIG1  -0.1400
     13 O3        -12.7495    15.8329   -12.0656 O.2        1  LIG1  -0.1900
     14 N4        -16.6407    15.2990   -18.3936 N.am       1  LIG1  -0.7300
     15 C8        -16.9013    16.4487   -19.2634 C.3        1  LIG1   0.1000
     16 C9        -18.1310    17.2040   -18.7556 C.3        1  LIG1  -0.0200
     17 N5        -19.2951    16.3079   -18.7665 N.4        1  LIG1  -0.3800
     18 H1        -19.0005    15.3949   -18.4539 H          1  LIG1   0.4300
     19 C10       -20.3014    16.8299   -17.8172 C.3        1  LIG1   0.0000
     20 C11       -21.0970    17.9788   -18.3750 C.3        1  LIG1  -0.1400
     21 C12       -22.3974    17.4147   -18.9880 C.3        1  LIG1  -0.1300
     22 C13       -22.1738    16.8196   -20.2994 C.3        1  LIG1  -0.1300
     23 C14       -21.1839    15.6358   -20.2406 C.3        1  LIG1  -0.1400
     24 C15       -19.7902    16.1943   -20.1552 C.3        1  LIG1  -0.0100
     25 H2        -17.0688    13.9493   -15.7717 H          1  LIG1   0.1100
     26 H3        -15.6594    13.5086   -16.7655 H          1  LIG1   0.1100
     27 H4        -14.9105    15.6202   -15.0462 H          1  LIG1   0.4300
     28 H5        -15.9500    12.1379   -14.9935 H          1  LIG1   0.1500
     29 H6        -15.2299    10.5436   -13.2641 H          1  LIG1   0.1800
     30 H7        -12.9871    13.4620   -11.3426 H          1  LIG1   0.1900
     31 H8        -16.6497    14.4013   -18.7607 H          1  LIG1   0.4100
     32 H9        -16.0375    17.1136   -19.2553 H          1  LIG1   0.0900
     33 H10       -17.0826    16.1012   -20.2804 H          1  LIG1   0.0900
     34 H11       -17.9497    17.5516   -17.7385 H          1  LIG1   0.1400
     35 H12       -18.3250    18.0594   -19.4028 H          1  LIG1   0.1400
     36 H13       -20.9865    16.0238   -17.5541 H          1  LIG1   0.1300
     37 H14       -19.7914    17.1625   -16.9132 H          1  LIG1   0.1300
     38 H15       -21.3408    18.6790   -17.5761 H          1  LIG1   0.1100
     39 H16       -20.5176    18.4872   -19.1458 H          1  LIG1   0.0800
     40 H17       -22.8035    16.6558   -18.3194 H          1  LIG1   0.0700
     41 H18       -23.1224    18.2230   -19.0851 H          1  LIG1   0.0900
     42 H19       -23.1261    16.4653   -20.6941 H          1  LIG1   0.0900
     43 H20       -21.7758    17.5808   -20.9703 H          1  LIG1   0.0700
     44 H21       -21.3910    15.0269   -19.3606 H          1  LIG1   0.0900
     45 H22       -21.2834    15.0285   -21.1402 H          1  LIG1   0.1100
     46 H23       -19.7795    17.1823   -20.6154 H          1  LIG1   0.1300
     47 H24       -19.1166    15.5432   -20.7123 H          1  LIG1   0.1300
@<TRIPOS>BOND
     1    1    2 2
     2    2    3 1
     3    2   14 am
     4    3    4 1
     5    3   25 1
     6    3   26 1
     7    4    5 1
     8    4   27 1
     9    5   10 ar
    10    5    6 ar
    11    6    7 ar
    12    6   28 1
    13    7    8 ar
    14    7   29 1
    15    8    9 ar
    16    9   10 ar
    17    9   30 1
    18   10   11 1
    19   11   12 2
    20   11   13 2
    21   14   15 1
    22   14   31 1
    23   15   16 1
    24   15   32 1
    25   15   33 1
    26   16   17 1
    27   16   34 1
    28   16   35 1
    29   17   18 1
    30   17   24 1
    31   17   19 1
    32   19   20 1
    33   19   36 1
    34   19   37 1
    35   20   21 1
    36   20   38 1
    37   20   39 1
    38   21   22 1
    39   21   40 1
    40   21   41 1
    41   22   23 1
    42   22   42 1
    43   22   43 1
    44   23   24 1
    45   23   44 1
    46   23   45 1
    47   24   46 1
    48   24   47 1
##########                 Name:     ZINC000195335838
##########          Protonation:                 none
##########               SMILES:   FC1=CC=CC(C2=NN(CCC[NH+]3CCOCC3)N=N2)=C1
##########            Long Name:   NO_LONG_NAME
##########          FlexRecCode: 1
##########               Number:                 2462
##########   Ligand Source File: /nfs/db/export/3D/CD/ADMO/CDADMO.xaep.db2.gz
##########                 Rank:                    1
##########               Setnum:                   59
##########             Matchnum:                    1
##########                Cloud:                    1
##########        Electrostatic:           -39.037685
##########                 Gist:             0.000000
##########        Van der Waals:           -29.251616
##########  Ligand Polar Desolv:            17.081373
########## Ligand Apolar Desolv:            -3.790972
##########      Internal Energy:             0.000000
##########      Receptor Energy:             0.000000
########## Receptor Desolvation:             0.000000
########## Receptor Hydrophobic:             0.000000
##########         Total Energy:           -54.998898
##########        Ligand Charge:             1.000000
##########            Arbitrary:    +999.9990
##########        Ligand Energy:             0.000000

@<TRIPOS>MOLECULE
 ZINC000195335838      none
   40    42     0     0     0



@<TRIPOS>ATOM
      1 F1        -12.9229    14.5802   -11.4975 F          1  LIG1  -0.1300
      2 C1        -13.7581    14.3668   -12.5379 C.ar       1  LIG1   0.1000
      3 C2        -14.4718    13.1826   -12.6205 C.ar       1  LIG1  -0.1300
      4 C3        -15.3285    12.9591   -13.6830 C.ar       1  LIG1  -0.0900
      5 C4        -15.4766    13.9155   -14.6669 C.ar       1  LIG1  -0.0800
      6 C5        -14.7615    15.1088   -14.5897 C.ar       1  LIG1   0.0000
      7 C6        -14.9183    16.1405   -15.6458 C.2        1  LIG1   0.2300
      8 N1        -15.3863    15.9553   -16.8640 N.2        1  LIG1  -0.3000
      9 N2        -15.3642    17.0916   -17.4719 N.pl3      1  LIG1  -0.1500
     10 C7        -15.8024    17.3236   -18.8505 C.3        1  LIG1   0.1400
     11 C8        -17.1365    16.6133   -19.0879 C.3        1  LIG1  -0.1700
     12 C9        -18.1863    17.1626   -18.1198 C.3        1  LIG1   0.0000
     13 N3        -19.4672    16.4807   -18.3477 N.4        1  LIG1  -0.3900
     14 H1        -19.3531    15.4901   -18.1934 H          1  LIG1   0.4200
     15 C10       -19.9073    16.7137   -19.7301 C.3        1  LIG1  -0.0400
     16 C11       -21.2420    16.0021   -19.9650 C.3        1  LIG1   0.0400
     17 O1        -22.2037    16.4795   -19.0200 O.3        1  LIG1  -0.3600
     18 C12       -21.8091    16.2964   -17.6574 C.3        1  LIG1   0.0400
     19 C13       -20.4754    17.0084   -17.4180 C.3        1  LIG1  -0.0500
     20 N4        -14.8971    17.9904   -16.6776 N.2        1  LIG1  -0.0500
     21 N5        -14.6170    17.4427   -15.5439 N.2        1  LIG1  -0.2600
     22 C14       -13.9038    15.3332   -13.5160 C.ar       1  LIG1  -0.1200
     23 H2        -14.3588    12.4313   -11.8530 H          1  LIG1   0.1500
     24 H3        -15.8825    12.0339   -13.7430 H          1  LIG1   0.1500
     25 H4        -16.1458    13.7390   -15.4960 H          1  LIG1   0.1400
     26 H5        -15.9259    18.3937   -19.0170 H          1  LIG1   0.1300
     27 H6        -15.0546    16.9324   -19.5402 H          1  LIG1   0.1300
     28 H7        -17.4627    16.7860   -20.1137 H          1  LIG1   0.1000
     29 H8        -17.0132    15.5433   -18.9213 H          1  LIG1   0.1000
     30 H9        -17.8602    16.9900   -17.0941 H          1  LIG1   0.1400
     31 H10       -18.3096    18.2327   -18.2865 H          1  LIG1   0.1400
     32 H11       -20.0314    17.7837   -19.8966 H          1  LIG1   0.1400
     33 H12       -19.1600    16.3224   -20.4204 H          1  LIG1   0.1500
     34 H13       -21.5916    16.2090   -20.9764 H          1  LIG1   0.1400
     35 H14       -21.1090    14.9277   -19.8377 H          1  LIG1   0.0800
     36 H15       -22.5692    16.7163   -16.9988 H          1  LIG1   0.1400
     37 H16       -21.6956    15.2321   -17.4513 H          1  LIG1   0.0800
     38 H17       -20.1501    16.8359   -16.3921 H          1  LIG1   0.1400
     39 H18       -20.5992    18.0785   -17.5854 H          1  LIG1   0.1400
     40 H19       -13.3476    16.2567   -13.4515 H          1  LIG1   0.1400
@<TRIPOS>BOND
     1    1    2 1
     2    2   22 ar
     3    2    3 ar
     4    3    4 ar
     5    3   23 1
     6    4    5 ar
     7    4   24 1
     8    5    6 ar
     9    5   25 1
    10    6    7 1
    11    6   22 ar
    12    7   21 1
    13    7    8 2
    14    8    9 1
    15    9   10 1
    16    9   20 1
    17   10   11 1
    18   10   26 1
    19   10   27 1
    20   11   12 1
    21   11   28 1
    22   11   29 1
    23   12   13 1
    24   12   30 1
    25   12   31 1
    26   13   14 1
    27   13   19 1
    28   13   15 1
    29   15   16 1
    30   15   32 1
    31   15   33 1
    32   16   17 1
    33   16   34 1
    34   16   35 1
    35   17   18 1
    36   18   19 1
    37   18   36 1
    38   18   37 1
    39   19   38 1
    40   19   39 1
    41   20   21 2
    42   22   40 1
##########                 Name:     ZINC000308370895
##########          Protonation:                 none
##########               SMILES:   CCOC1=CC=CC(C[NH2+][C@@H]2C[C@@H](OC)C23CCC3)=C1
##########            Long Name:   NO_LONG_NAME
##########          FlexRecCode: 1
##########               Number:                 7958
##########   Ligand Source File: /nfs/db/export/3D/CG/ADRO/CGADRO.xamt.db2.gz
##########                 Rank:                    1
##########               Setnum:                   42
##########             Matchnum:                    1
##########                Cloud:                    1
##########        Electrostatic:           -37.927567
##########                 Gist:             0.000000
##########        Van der Waals:           -26.412035
##########  Ligand Polar Desolv:            13.958661
########## Ligand Apolar Desolv:            -4.621130
##########      Internal Energy:             0.000000
##########      Receptor Energy:             0.000000
########## Receptor Desolvation:             0.000000
########## Receptor Hydrophobic:             0.000000
##########         Total Energy:           -55.002068
##########        Ligand Charge:             1.000000
##########            Arbitrary:    +999.9990
##########        Ligand Energy:             0.000000

@<TRIPOS>MOLECULE
 ZINC000308370895      none
   46    48     0     0     0



@<TRIPOS>ATOM
      1 C1        -16.5253    12.7262   -16.1201 C.3        1  LIG1  -0.1600
      2 C2        -16.7136    12.9770   -14.6226 C.3        1  LIG1   0.0500
      3 O1        -15.8271    14.0143   -14.1981 O.3        1  LIG1  -0.3100
      4 C3        -15.9685    15.2283   -14.7925 C.ar       1  LIG1   0.1400
      5 C4        -14.8679    16.0582   -14.9477 C.ar       1  LIG1  -0.1800
      6 C5        -15.0144    17.2917   -15.5527 C.ar       1  LIG1  -0.0700
      7 C6        -16.2563    17.6991   -16.0029 C.ar       1  LIG1  -0.1300
      8 C7        -17.3551    16.8737   -15.8488 C.ar       1  LIG1  -0.1200
      9 C8        -18.7077    17.3211   -16.3402 C.3        1  LIG1   0.0500
     10 N1        -18.8889    16.8925   -17.7335 N.4        1  LIG1  -0.5000
     11 H1        -18.1692    17.3044   -18.3084 H          1  LIG1   0.4300
     12 H2        -18.8274    15.8868   -17.7866 H          1  LIG1   0.4300
     13 C9        -20.2074    17.3286   -18.2124 C.3        1  LIG1   0.0300
     14 H3        -20.4735    18.3285   -17.8697 H          1  LIG1   0.1700
     15 C10       -21.3190    16.2855   -17.9970 C.3        1  LIG1  -0.1700
     16 C11       -21.8423    16.6617   -19.3951 C.3        1  LIG1   0.0900
     17 H4        -22.1701    15.8054   -19.9846 H          1  LIG1   0.1000
     18 O2        -22.7959    17.7259   -19.3834 O.3        1  LIG1  -0.3600
     19 C12       -23.6110    17.7890   -20.5554 C.3        1  LIG1   0.0300
     20 C13       -20.4158    17.1183   -19.7125 C.3        1  LIG1  -0.1200
     21 C14       -20.1499    18.2416   -20.7153 C.3        1  LIG1  -0.1100
     22 C15       -18.8096    17.5438   -21.0098 C.3        1  LIG1  -0.1500
     23 C16       -19.4667    16.2381   -20.5264 C.3        1  LIG1  -0.1200
     24 C17       -17.2129    15.6370   -15.2502 C.ar       1  LIG1  -0.1300
     25 H5        -17.2017    11.9351   -16.4439 H          1  LIG1   0.0900
     26 H6        -16.7446    13.6402   -16.6720 H          1  LIG1   0.0700
     27 H7        -15.4954    12.4247   -16.3113 H          1  LIG1   0.0700
     28 H8        -17.7436    13.2785   -14.4314 H          1  LIG1   0.0700
     29 H9        -16.4942    12.0630   -14.0708 H          1  LIG1   0.0700
     30 H10       -13.8975    15.7407   -14.5957 H          1  LIG1   0.1400
     31 H11       -14.1579    17.9383   -15.6739 H          1  LIG1   0.1400
     32 H12       -16.3688    18.6638   -16.4752 H          1  LIG1   0.1300
     33 H13       -19.4853    16.8764   -15.7191 H          1  LIG1   0.1400
     34 H14       -18.7740    18.4076   -16.2826 H          1  LIG1   0.1400
     35 H15       -20.9497    15.2621   -17.9305 H          1  LIG1   0.1100
     36 H16       -22.0065    16.5411   -17.1908 H          1  LIG1   0.1100
     37 H17       -24.3079    18.6226   -20.4689 H          1  LIG1   0.0500
     38 H18       -22.9779    17.9341   -21.4308 H          1  LIG1   0.0500
     39 H19       -24.1688    16.8585   -20.6606 H          1  LIG1   0.1000
     40 H20       -20.8369    18.2443   -21.5616 H          1  LIG1   0.1000
     41 H21       -20.0400    19.2230   -20.2539 H          1  LIG1   0.0800
     42 H22       -18.5463    17.5338   -22.0674 H          1  LIG1   0.0900
     43 H23       -17.9925    17.8824   -20.3729 H          1  LIG1   0.0800
     44 H24       -18.8109    15.6190   -19.9141 H          1  LIG1   0.0700
     45 H25       -19.9616    15.6777   -21.3196 H          1  LIG1   0.1100
     46 H26       -18.0713    14.9926   -15.1306 H          1  LIG1   0.1400
@<TRIPOS>BOND
     1    1    2 1
     2    1   25 1
     3    1   26 1
     4    1   27 1
     5    2    3 1
     6    2   28 1
     7    2   29 1
     8    3    4 1
     9    4   24 ar
    10    4    5 ar
    11    5    6 ar
    12    5   30 1
    13    6    7 ar
    14    6   31 1
    15    7    8 ar
    16    7   32 1
    17    8    9 1
    18    8   24 ar
    19    9   10 1
    20    9   33 1
    21    9   34 1
    22   10   11 1
    23   10   12 1
    24   10   13 1
    25   13   14 1
    26   13   20 1
    27   13   15 1
    28   15   16 1
    29   15   35 1
    30   15   36 1
    31   16   17 1
    32   16   18 1
    33   16   20 1
    34   18   19 1
    35   19   37 1
    36   19   38 1
    37   19   39 1
    38   20   23 1
    39   20   21 1
    40   21   22 1
    41   21   40 1
    42   21   41 1
    43   22   23 1
    44   22   42 1
    45   22   43 1
    46   23   44 1
    47   23   45 1
    48   24   46 1
##########                 Name:     ZINC000570982110
##########          Protonation:                 none
##########               SMILES:   CC1=CC=C(C2=NC(C(=O)N3C[C@H](O)[C@@H]([NH+](C)C)C3)=CS2)N1C
##########            Long Name:   NO_LONG_NAME
##########          FlexRecCode: 1
##########               Number:                10078
##########   Ligand Source File: /nfs/db/export/3D/ED/ADRO/EDADRO.xalm.db2.gz
##########                 Rank:                    1
##########               Setnum:                   78
##########             Matchnum:                    1
##########                Cloud:                    1
##########        Electrostatic:           -32.785213
##########                 Gist:             0.000000
##########        Van der Waals:           -33.287094
##########  Ligand Polar Desolv:            14.087065
########## Ligand Apolar Desolv:            -3.019093
##########      Internal Energy:             0.000000
##########      Receptor Energy:             0.000000
########## Receptor Desolvation:             0.000000
########## Receptor Hydrophobic:             0.000000
##########         Total Energy:           -55.004341
##########        Ligand Charge:             1.000000
##########            Arbitrary:    +999.9990
##########        Ligand Energy:             0.000000

@<TRIPOS>MOLECULE
 ZINC000570982110      none
   46    48     0     0     0



@<TRIPOS>ATOM
      1 C1        -14.9132    12.0615   -13.4491 C.3        1  LIG1  -0.0900
      2 C2        -14.4142    13.4835   -13.4611 C.2        1  LIG1   0.0600
      3 C3        -13.5331    14.0180   -12.5865 C.2        1  LIG1  -0.2000
      4 C4        -13.3359    15.3598   -12.9446 C.2        1  LIG1  -0.1100
      5 C5        -14.1122    15.6061   -14.0403 C.2        1  LIG1   0.0400
      6 C6        -14.2191    16.8876   -14.7571 C.2        1  LIG1   0.1400
      7 N1        -14.9687    17.1074   -15.7974 N.2        1  LIG1  -0.4500
      8 C7        -14.9187    18.3367   -16.2938 C.2        1  LIG1   0.0100
      9 C8        -15.7072    18.7465   -17.4686 C.2        1  LIG1   0.6200
     10 O1        -15.2858    19.6122   -18.2120 O.2        1  LIG1  -0.5100
     11 N2        -16.8955    18.1623   -17.7196 N.am       1  LIG1  -0.6100
     12 C9        -17.8178    17.6200   -16.7055 C.3        1  LIG1   0.0700
     13 C10       -19.2119    17.6512   -17.3800 C.3        1  LIG1   0.0800
     14 H1        -19.6511    18.6473   -17.3234 H          1  LIG1   0.1000
     15 O2        -20.0827    16.6769   -16.8017 O.3        1  LIG1  -0.5500
     16 C11       -18.8577    17.2820   -18.8447 C.3        1  LIG1   0.0100
     17 H2        -18.7741    16.2016   -18.9607 H          1  LIG1   0.1600
     18 N3        -19.8564    17.8268   -19.7741 N.4        1  LIG1  -0.3800
     19 H3        -19.8826    18.8319   -19.6886 H          1  LIG1   0.4200
     20 C12       -19.4952    17.4617   -21.1503 C.3        1  LIG1  -0.0500
     21 C13       -21.1785    17.2735   -19.4516 C.3        1  LIG1  -0.0400
     22 C14       -17.4897    17.9661   -19.0501 C.3        1  LIG1   0.1000
     23 C15       -14.0926    19.1858   -15.6438 C.2        1  LIG1  -0.2200
     24 S1        -13.3585    18.3639   -14.3362 S.3        1  LIG1   0.1900
     25 N4        -14.7709    14.4438   -14.3583 N.pl3      1  LIG1  -0.4400
     26 C16       -15.7076    14.2688   -15.4710 C.3        1  LIG1   0.0600
     27 H4        -14.4572    11.5234   -12.6181 H          1  LIG1   0.0800
     28 H5        -15.9970    12.0577   -13.3332 H          1  LIG1   0.0900
     29 H6        -14.6463    11.5748   -14.3872 H          1  LIG1   0.0700
     30 H7        -13.0651    13.5042   -11.7599 H          1  LIG1   0.1500
     31 H8        -12.6899    16.0671   -12.4457 H          1  LIG1   0.1400
     32 H9        -17.5423    16.5965   -16.4509 H          1  LIG1   0.0900
     33 H10       -17.8133    18.2476   -15.8143 H          1  LIG1   0.1300
     34 H11       -19.7633    15.7676   -16.8808 H          1  LIG1   0.4100
     35 H12       -20.2362    17.8659   -21.8399 H          1  LIG1   0.1300
     36 H13       -18.5142    17.8721   -21.3896 H          1  LIG1   0.1200
     37 H14       -19.4671    16.3760   -21.2427 H          1  LIG1   0.1300
     38 H15       -21.9197    17.6776   -20.1412 H          1  LIG1   0.1300
     39 H16       -21.1502    16.1876   -19.5440 H          1  LIG1   0.1200
     40 H17       -21.4464    17.5443   -18.4303 H          1  LIG1   0.1200
     41 H18       -17.6264    18.9270   -19.5459 H          1  LIG1   0.0900
     42 H19       -16.8417    17.3264   -19.6492 H          1  LIG1   0.1100
     43 H20       -13.9257    20.2202   -15.9058 H          1  LIG1   0.1900
     44 H21       -15.7991    15.2062   -16.0198 H          1  LIG1   0.0900
     45 H22       -15.3369    13.4915   -16.1392 H          1  LIG1   0.1000
     46 H23       -16.6836    13.9787   -15.0821 H          1  LIG1   0.0800
@<TRIPOS>BOND
     1    1    2 1
     2    1   27 1
     3    1   28 1
     4    1   29 1
     5    2   25 1
     6    2    3 2
     7    3    4 1
     8    3   30 1
     9    4    5 2
    10    4   31 1
    11    5    6 1
    12    5   25 1
    13    6   24 1
    14    6    7 2
    15    7    8 1
    16    8    9 1
    17    8   23 2
    18    9   10 2
    19    9   11 am
    20   11   22 1
    21   11   12 1
    22   12   13 1
    23   12   32 1
    24   12   33 1
    25   13   14 1
    26   13   15 1
    27   13   16 1
    28   15   34 1
    29   16   17 1
    30   16   18 1
    31   16   22 1
    32   18   19 1
    33   18   20 1
    34   18   21 1
    35   20   35 1
    36   20   36 1
    37   20   37 1
    38   21   38 1
    39   21   39 1
    40   21   40 1
    41   22   41 1
    42   22   42 1
    43   23   24 1
    44   23   43 1
    45   25   26 1
    46   26   44 1
    47   26   45 1
    48   26   46 1
##########                 Name:     ZINC000579130977
##########          Protonation:                 none
##########               SMILES:   C[C@H](C(=O)N[C@H]1CCC[C@@H](CO)C1)[N@H+]1C[C@H](C)C1
##########            Long Name:   NO_LONG_NAME
##########          FlexRecCode: 1
##########               Number:                 6253
##########   Ligand Source File: /nfs/db/export/3D/CC/ADMO/CCADMO.xazt.db2.gz
##########                 Rank:                    1
##########               Setnum:                  117
##########             Matchnum:                    1
##########                Cloud:                    1
##########        Electrostatic:           -42.260159
##########                 Gist:             0.000000
##########        Van der Waals:           -23.812344
##########  Ligand Polar Desolv:            12.896901
########## Ligand Apolar Desolv:            -1.826481
##########      Internal Energy:             0.000000
##########      Receptor Energy:             0.000000
########## Receptor Desolvation:             0.000000
########## Receptor Hydrophobic:             0.000000
##########         Total Energy:           -55.002083
##########        Ligand Charge:             1.000000
##########            Arbitrary:    +999.9990
##########        Ligand Energy:             0.000000

@<TRIPOS>MOLECULE
 ZINC000579130977      none
   45    46     0     0     0



@<TRIPOS>ATOM
      1 C1        -16.4067    15.8520   -18.8049 C.3        1  LIG1  -0.1800
      2 C2        -16.9747    16.7183   -17.6788 C.3        1  LIG1   0.0000
      3 H1        -16.6308    17.7453   -17.8017 H          1  LIG1   0.1600
      4 C3        -16.5039    16.1866   -16.3497 C.2        1  LIG1   0.5100
      5 O1        -16.3502    16.9429   -15.4140 O.2        1  LIG1  -0.5200
      6 N1        -16.2534    14.8707   -16.2006 N.am       1  LIG1  -0.7000
      7 C4        -15.7956    14.3539   -14.9085 C.3        1  LIG1   0.1500
      8 H2        -16.5445    14.5675   -14.1459 H          1  LIG1   0.1000
      9 C5        -15.5871    12.8416   -15.0090 C.3        1  LIG1  -0.1300
     10 C6        -15.1089    12.3018   -13.6595 C.3        1  LIG1  -0.1200
     11 C7        -13.7883    12.9747   -13.2801 C.3        1  LIG1  -0.1200
     12 C8        -13.9969    14.4871   -13.1796 C.3        1  LIG1  -0.0800
     13 H3        -14.7458    14.7007   -12.4169 H          1  LIG1   0.0800
     14 C9        -12.6764    15.1601   -12.8001 C.3        1  LIG1   0.0800
     15 O2        -12.2298    14.6560   -11.5397 O.3        1  LIG1  -0.5700
     16 C10       -14.4750    15.0268   -14.5290 C.3        1  LIG1  -0.1200
     17 N2        -18.4425    16.6841   -17.7277 N.4        1  LIG1  -0.4000
     18 H4        -18.8181    15.7540   -17.6187 H          1  LIG1   0.4400
     19 C11       -19.0081    17.4141   -18.8776 C.3        1  LIG1   0.0000
     20 C12       -20.1333    17.8925   -17.9494 C.3        1  LIG1  -0.1200
     21 C13       -21.3255    16.9373   -17.8661 C.3        1  LIG1  -0.1600
     22 C14       -19.0819    17.6814   -16.8493 C.3        1  LIG1   0.0000
     23 H5        -16.7506    14.8250   -18.6820 H          1  LIG1   0.0900
     24 H6        -16.7472    16.2366   -19.7661 H          1  LIG1   0.1000
     25 H7        -15.3176    15.8773   -18.7686 H          1  LIG1   0.1100
     26 H8        -16.3763    14.2659   -16.9488 H          1  LIG1   0.4100
     27 H9        -16.5278    12.3622   -15.2794 H          1  LIG1   0.0700
     28 H10       -14.8381    12.6280   -15.7717 H          1  LIG1   0.0700
     29 H11       -15.8578    12.5155   -12.8969 H          1  LIG1   0.0700
     30 H12       -14.9603    11.2244   -13.7312 H          1  LIG1   0.0700
     31 H13       -13.4477    12.5903   -12.3187 H          1  LIG1   0.0800
     32 H14       -13.0394    12.7612   -14.0427 H          1  LIG1   0.0600
     33 H15       -11.9273    14.9465   -13.5627 H          1  LIG1   0.0500
     34 H16       -12.8250    16.2375   -12.7285 H          1  LIG1   0.0500
     35 H17       -12.0767    13.7012   -11.5298 H          1  LIG1   0.3900
     36 H18       -13.7261    14.8133   -15.2917 H          1  LIG1   0.0800
     37 H19       -14.6237    16.1043   -14.4574 H          1  LIG1   0.0700
     38 H20       -18.3690    18.2207   -19.2368 H          1  LIG1   0.1500
     39 H21       -19.3543    16.7611   -19.6787 H          1  LIG1   0.1400
     40 H22       -20.4244    18.9321   -18.0999 H          1  LIG1   0.1400
     41 H23       -22.0748    17.3495   -17.1903 H          1  LIG1   0.0600
     42 H24       -21.7604    16.8117   -18.8577 H          1  LIG1   0.0900
     43 H25       -20.9907    15.9701   -17.4911 H          1  LIG1   0.0900
     44 H26       -19.4914    17.2559   -15.9332 H          1  LIG1   0.1400
     45 H27       -18.4622    18.5594   -16.6668 H          1  LIG1   0.1500
@<TRIPOS>BOND
     1    1    2 1
     2    1   23 1
     3    1   24 1
     4    1   25 1
     5    2    3 1
     6    2    4 1
     7    2   17 1
     8    4    5 2
     9    4    6 am
    10    6    7 1
    11    6   26 1
    12    7    8 1
    13    7   16 1
    14    7    9 1
    15    9   10 1
    16    9   27 1
    17    9   28 1
    18   10   11 1
    19   10   29 1
    20   10   30 1
    21   11   12 1
    22   11   31 1
    23   11   32 1
    24   12   13 1
    25   12   14 1
    26   12   16 1
    27   14   15 1
    28   14   33 1
    29   14   34 1
    30   15   35 1
    31   16   36 1
    32   16   37 1
    33   17   18 1
    34   17   22 1
    35   17   19 1
    36   19   20 1
    37   19   38 1
    38   19   39 1
    39   20   21 1
    40   20   22 1
    41   20   40 1
    42   21   41 1
    43   21   42 1
    44   21   43 1
    45   22   44 1
    46   22   45 1
##########                 Name:     ZINC000092642352
##########          Protonation:                 none
##########               SMILES:   C[C@@H]1CCC[N@@H+](C(C)(C)CNC2=NC(C3CC3)=NS2)C1
##########            Long Name:   NO_LONG_NAME
##########          FlexRecCode: 1
##########               Number:                 7413
##########   Ligand Source File: /nfs/db/export/3D/CG/ADRO/CGADRO.xbvp.db2.gz
##########                 Rank:                    1
##########               Setnum:                  104
##########             Matchnum:                    1
##########                Cloud:                    1
##########        Electrostatic:           -36.200756
##########                 Gist:             0.000000
##########        Van der Waals:           -26.164398
##########  Ligand Polar Desolv:            12.513380
########## Ligand Apolar Desolv:            -5.152871
##########      Internal Energy:             0.000000
##########      Receptor Energy:             0.000000
########## Receptor Desolvation:             0.000000
########## Receptor Hydrophobic:             0.000000
##########         Total Energy:           -55.004646
##########        Ligand Charge:             1.000000
##########            Arbitrary:    +999.9990
##########        Ligand Energy:             0.000000

@<TRIPOS>MOLECULE
 ZINC000092642352      none
   47    49     0     0     0



@<TRIPOS>ATOM
      1 C1        -19.8953    15.9932   -19.5984 C.3        1  LIG1  -0.1700
      2 C2        -19.2819    17.3927   -19.6772 C.3        1  LIG1  -0.1100
      3 H1        -20.0496    18.1109   -19.9651 H          1  LIG1   0.1200
      4 C3        -18.1584    17.4007   -20.7178 C.3        1  LIG1  -0.1300
      5 C4        -17.0498    16.4460   -20.2651 C.3        1  LIG1  -0.1500
      6 C5        -16.5584    16.8650   -18.8778 C.3        1  LIG1  -0.0200
      7 N1        -17.6724    16.8115   -17.9234 N.4        1  LIG1  -0.3800
      8 H2        -18.0651    15.8821   -17.9182 H          1  LIG1   0.4200
      9 C6        -17.1797    17.1407   -16.5791 C.3        1  LIG1   0.0500
     10 C7        -16.5803    18.5484   -16.5862 C.3        1  LIG1  -0.1800
     11 C8        -18.3398    17.0853   -15.5831 C.3        1  LIG1  -0.1800
     12 C9        -16.1059    16.1311   -16.1681 C.3        1  LIG1   0.1000
     13 N2        -16.6799    14.7833   -16.1614 N.pl3      1  LIG1  -0.7000
     14 C10       -16.1900    13.8275   -15.2899 C.2        1  LIG1   0.3200
     15 N3        -15.2241    13.9681   -14.4068 N.2        1  LIG1  -0.5600
     16 C11       -14.9265    12.9144   -13.6824 C.2        1  LIG1   0.3400
     17 C12       -13.8371    12.9681   -12.6425 C.3        1  LIG1  -0.0900
     18 C13       -12.5781    13.7696   -12.9790 C.3        1  LIG1  -0.1500
     19 C14       -13.5798    14.3118   -11.9574 C.3        1  LIG1  -0.1500
     20 N4        -15.6025    11.8221   -13.8907 N.2        1  LIG1  -0.4800
     21 S1        -16.7162    12.1958   -15.1188 S.3        1  LIG1   0.2100
     22 C15       -18.7087    17.7771   -18.3115 C.3        1  LIG1  -0.0100
     23 H3        -19.1270    15.2756   -19.3105 H          1  LIG1   0.0700
     24 H4        -20.6937    15.9878   -18.8564 H          1  LIG1   0.0900
     25 H5        -20.3019    15.7194   -20.5719 H          1  LIG1   0.0500
     26 H6        -18.5508    17.0731   -21.6805 H          1  LIG1   0.1000
     27 H7        -17.7552    18.4091   -20.8112 H          1  LIG1   0.0800
     28 H8        -17.4404    15.4294   -20.2210 H          1  LIG1   0.0900
     29 H9        -16.2217    16.4882   -20.9726 H          1  LIG1   0.1100
     30 H10       -15.7689    16.1875   -18.5525 H          1  LIG1   0.1300
     31 H11       -16.1678    17.8816   -18.9228 H          1  LIG1   0.1400
     32 H12       -16.2148    18.7925   -15.5887 H          1  LIG1   0.0900
     33 H13       -15.7538    18.5878   -17.2958 H          1  LIG1   0.1100
     34 H14       -17.3452    19.2675   -16.8789 H          1  LIG1   0.0900
     35 H15       -17.9743    17.3295   -14.5857 H          1  LIG1   0.0800
     36 H16       -19.1048    17.8044   -15.8759 H          1  LIG1   0.1100
     37 H17       -18.7668    16.0824   -15.5782 H          1  LIG1   0.0900
     38 H18       -15.2795    16.1707   -16.8777 H          1  LIG1   0.1000
     39 H19       -15.7405    16.3754   -15.1707 H          1  LIG1   0.1200
     40 H20       -17.4034    14.5613   -16.7680 H          1  LIG1   0.4100
     41 H21       -13.7144    12.0658   -12.0431 H          1  LIG1   0.1400
     42 H22       -11.6268    13.3949   -12.6011 H          1  LIG1   0.1100
     43 H23       -12.5378    14.2582   -13.9526 H          1  LIG1   0.1100
     44 H24       -14.1985    15.1569   -12.2590 H          1  LIG1   0.1000
     45 H25       -13.2877    14.2936   -10.9075 H          1  LIG1   0.1100
     46 H26       -18.2725    18.7743   -18.3686 H          1  LIG1   0.1400
     47 H27       -19.5059    17.7721   -17.5681 H          1  LIG1   0.1300
@<TRIPOS>BOND
     1    1    2 1
     2    1   23 1
     3    1   24 1
     4    1   25 1
     5    2    3 1
     6    2   22 1
     7    2    4 1
     8    4    5 1
     9    4   26 1
    10    4   27 1
    11    5    6 1
    12    5   28 1
    13    5   29 1
    14    6    7 1
    15    6   30 1
    16    6   31 1
    17    7    8 1
    18    7    9 1
    19    7   22 1
    20    9   10 1
    21    9   11 1
    22    9   12 1
    23   10   32 1
    24   10   33 1
    25   10   34 1
    26   11   35 1
    27   11   36 1
    28   11   37 1
    29   12   13 1
    30   12   38 1
    31   12   39 1
    32   13   14 1
    33   13   40 1
    34   14   21 1
    35   14   15 2
    36   15   16 1
    37   16   17 1
    38   16   20 2
    39   17   19 1
    40   17   18 1
    41   17   41 1
    42   18   19 1
    43   18   42 1
    44   18   43 1
    45   19   44 1
    46   19   45 1
    47   20   21 1
    48   22   46 1
    49   22   47 1
##########                 Name:     ZINC000601077976
##########          Protonation:                 none
##########               SMILES:   C[NH+](C)CCSCC1=CC=CC2=C1CCOC2
##########            Long Name:   NO_LONG_NAME
##########          FlexRecCode: 1
##########               Number:                 4390
##########   Ligand Source File: /nfs/db/export/3D/CF/ADRO/CFADRO.xceg.db2.gz
##########                 Rank:                    1
##########               Setnum:                   65
##########             Matchnum:                    1
##########                Cloud:                    1
##########        Electrostatic:           -37.903599
##########                 Gist:             0.000000
##########        Van der Waals:           -25.929274
##########  Ligand Polar Desolv:            13.861315
########## Ligand Apolar Desolv:            -5.029962
##########      Internal Energy:             0.000000
##########      Receptor Energy:             0.000000
########## Receptor Desolvation:             0.000000
########## Receptor Hydrophobic:             0.000000
##########         Total Energy:           -55.001518
##########        Ligand Charge:             1.000000
##########            Arbitrary:    +999.9990
##########        Ligand Energy:             0.000000

@<TRIPOS>MOLECULE
 ZINC000601077976      none
   39    40     0     0     0



@<TRIPOS>ATOM
      1 C1        -19.5006    17.2733   -18.0850 C.3        1  LIG1  -0.0500
      2 N1        -18.2701    16.4848   -18.2343 N.4        1  LIG1  -0.3900
      3 H1        -18.3114    15.6791   -17.6285 H          1  LIG1   0.4300
      4 C2        -18.1381    16.0427   -19.6290 C.3        1  LIG1  -0.0500
      5 C3        -17.1116    17.3118   -17.8710 C.3        1  LIG1   0.0100
      6 C4        -17.2491    17.7723   -16.4185 C.3        1  LIG1  -0.1500
      7 S1        -17.3232    16.3236   -15.3293 S.3        1  LIG1  -0.1900
      8 C5        -16.0989    15.2015   -16.0591 C.3        1  LIG1  -0.0400
      9 C6        -15.6784    14.1809   -15.0329 C.ar       1  LIG1  -0.0900
     10 C7        -16.3639    12.9869   -14.9298 C.ar       1  LIG1  -0.0900
     11 C8        -15.9788    12.0510   -13.9878 C.ar       1  LIG1  -0.1200
     12 C9        -14.9119    12.3146   -13.1522 C.ar       1  LIG1  -0.0900
     13 C10       -14.2235    13.5138   -13.2538 C.ar       1  LIG1  -0.1200
     14 C11       -14.6016    14.4427   -14.2005 C.ar       1  LIG1  -0.0500
     15 C12       -13.8700    15.7520   -14.3504 C.3        1  LIG1  -0.1200
     16 C13       -13.0330    16.0233   -13.0991 C.3        1  LIG1   0.0600
     17 O1        -12.2721    14.8480   -12.7979 O.3        1  LIG1  -0.3700
     18 C14       -13.0689    13.7669   -12.3197 C.3        1  LIG1   0.1000
     19 H2        -19.4561    18.1438   -18.7394 H          1  LIG1   0.1300
     20 H3        -20.3603    16.6597   -18.3545 H          1  LIG1   0.1200
     21 H4        -19.5986    17.6014   -17.0502 H          1  LIG1   0.1200
     22 H5        -17.2251    15.4576   -19.7397 H          1  LIG1   0.1200
     23 H6        -18.9977    15.4290   -19.8984 H          1  LIG1   0.1300
     24 H7        -18.0935    16.9131   -20.2835 H          1  LIG1   0.1300
     25 H8        -16.1986    16.7268   -17.9818 H          1  LIG1   0.1400
     26 H9        -17.0670    18.1824   -18.5255 H          1  LIG1   0.1400
     27 H10       -16.3895    18.3859   -16.1490 H          1  LIG1   0.1000
     28 H11       -18.1622    18.3573   -16.3076 H          1  LIG1   0.1000
     29 H12       -16.5378    14.6937   -16.9178 H          1  LIG1   0.1000
     30 H13       -15.2283    15.7732   -16.3808 H          1  LIG1   0.1000
     31 H14       -17.1996    12.7845   -15.5834 H          1  LIG1   0.1300
     32 H15       -16.5119    11.1155   -13.9055 H          1  LIG1   0.1300
     33 H16       -14.6125    11.5836   -12.4158 H          1  LIG1   0.1300
     34 H17       -13.2155    15.7038   -15.2208 H          1  LIG1   0.0900
     35 H18       -14.5920    16.5573   -14.4851 H          1  LIG1   0.0800
     36 H19       -12.3581    16.8590   -13.2840 H          1  LIG1   0.1000
     37 H20       -13.6908    16.2582   -12.2623 H          1  LIG1   0.0600
     38 H21       -13.4601    14.0155   -11.3332 H          1  LIG1   0.0700
     39 H22       -12.4537    12.8702   -12.2461 H          1  LIG1   0.1100
@<TRIPOS>BOND
     1    1    2 1
     2    1   19 1
     3    1   20 1
     4    1   21 1
     5    2    3 1
     6    2    4 1
     7    2    5 1
     8    4   22 1
     9    4   23 1
    10    4   24 1
    11    5    6 1
    12    5   25 1
    13    5   26 1
    14    6    7 1
    15    6   27 1
    16    6   28 1
    17    7    8 1
    18    8    9 1
    19    8   29 1
    20    8   30 1
    21    9   14 ar
    22    9   10 ar
    23   10   11 ar
    24   10   31 1
    25   11   12 ar
    26   11   32 1
    27   12   13 ar
    28   12   33 1
    29   13   18 1
    30   13   14 ar
    31   14   15 1
    32   15   16 1
    33   15   34 1
    34   15   35 1
    35   16   17 1
    36   16   36 1
    37   16   37 1
    38   17   18 1
    39   18   38 1
    40   18   39 1
##########                 Name:     ZINC000127859549
##########          Protonation:                 none
##########               SMILES:   CC1=CC=C(C[NH2+]CCCN2C=CC=N2)C=C1Br
##########            Long Name:   NO_LONG_NAME
##########          FlexRecCode: 1
##########               Number:                 4917
##########   Ligand Source File: /nfs/db/export/3D/DG/ADRO/DGADRO.xcez.db2.gz
##########                 Rank:                    1
##########               Setnum:                   78
##########             Matchnum:                    1
##########                Cloud:                    1
##########        Electrostatic:           -43.414024
##########                 Gist:             0.000000
##########        Van der Waals:           -26.286106
##########  Ligand Polar Desolv:            19.678440
########## Ligand Apolar Desolv:            -4.981261
##########      Internal Energy:             0.000000
##########      Receptor Energy:             0.000000
########## Receptor Desolvation:             0.000000
########## Receptor Hydrophobic:             0.000000
##########         Total Energy:           -55.002956
##########        Ligand Charge:             1.000000
##########            Arbitrary:    +999.9990
##########        Ligand Energy:             0.000000

@<TRIPOS>MOLECULE
 ZINC000127859549      none
   37    38     0     0     0



@<TRIPOS>ATOM
      1 C1        -14.7225    11.3999   -13.0006 C.3        1  LIG1  -0.1400
      2 C2        -14.9786    12.6134   -13.8567 C.ar       1  LIG1  -0.0100
      3 C3        -15.9475    12.5726   -14.8413 C.ar       1  LIG1  -0.1100
      4 C4        -16.1826    13.6859   -15.6268 C.ar       1  LIG1  -0.0700
      5 C5        -15.4491    14.8402   -15.4275 C.ar       1  LIG1  -0.1700
      6 C6        -15.7057    16.0532   -16.2840 C.3        1  LIG1   0.0500
      7 N1        -16.7740    15.7553   -17.2473 N.4        1  LIG1  -0.5100
      8 H1        -16.4929    14.9832   -17.8331 H          1  LIG1   0.4300
      9 H2        -17.6170    15.5104   -16.7498 H          1  LIG1   0.4300
     10 C7        -17.0243    16.9376   -18.0823 C.3        1  LIG1  -0.0100
     11 C8        -18.1369    16.6274   -19.0856 C.3        1  LIG1  -0.1700
     12 C9        -18.3975    17.8589   -19.9553 C.3        1  LIG1   0.1400
     13 N2        -17.1737    18.2144   -20.6779 N.pl3      1  LIG1  -0.3900
     14 C10       -16.8131    17.7645   -21.8980 C.2        1  LIG1   0.0500
     15 C11       -15.6220    18.3263   -22.2092 C.2        1  LIG1  -0.2600
     16 C12       -15.2417    19.1472   -21.1428 C.2        1  LIG1   0.0600
     17 N3        -16.1739    19.0858   -20.2268 N.2        1  LIG1  -0.3000
     18 C13       -14.4802    14.8823   -14.4422 C.ar       1  LIG1  -0.0600
     19 C14       -14.2477    13.7703   -13.6534 C.ar       1  LIG1  -0.1000
     20 Br1       -12.9227    13.8273   -12.3055 Br         1  LIG1  -0.0200
     21 H3        -15.3885    10.5928   -13.3058 H          1  LIG1   0.0900
     22 H4        -13.6870    11.0818   -13.1218 H          1  LIG1   0.0800
     23 H5        -14.9066    11.6473   -11.9552 H          1  LIG1   0.0900
     24 H6        -16.5210    11.6707   -14.9973 H          1  LIG1   0.1500
     25 H7        -16.9394    13.6533   -16.3966 H          1  LIG1   0.1400
     26 H8        -16.0094    16.8872   -15.6512 H          1  LIG1   0.1400
     27 H9        -14.7952    16.3177   -16.8216 H          1  LIG1   0.1400
     28 H10       -17.3279    17.7716   -17.4495 H          1  LIG1   0.1400
     29 H11       -16.1137    17.2022   -18.6199 H          1  LIG1   0.1400
     30 H12       -17.8333    15.7933   -19.7184 H          1  LIG1   0.1000
     31 H13       -19.0474    16.3629   -18.5481 H          1  LIG1   0.0900
     32 H14       -19.1902    17.6379   -20.6699 H          1  LIG1   0.1100
     33 H15       -18.7010    18.6929   -19.3224 H          1  LIG1   0.0900
     34 H16       -17.3744    17.0789   -22.5153 H          1  LIG1   0.1800
     35 H17       -15.0634    18.1679   -23.1199 H          1  LIG1   0.1500
     36 H18       -14.3371    19.7347   -21.0871 H          1  LIG1   0.1900
     37 H19       -13.9074    15.7844   -14.2863 H          1  LIG1   0.1400
@<TRIPOS>BOND
     1    1    2 1
     2    1   21 1
     3    1   22 1
     4    1   23 1
     5    2   19 ar
     6    2    3 ar
     7    3    4 ar
     8    3   24 1
     9    4    5 ar
    10    4   25 1
    11    5    6 1
    12    5   18 ar
    13    6    7 1
    14    6   26 1
    15    6   27 1
    16    7    8 1
    17    7    9 1
    18    7   10 1
    19   10   11 1
    20   10   28 1
    21   10   29 1
    22   11   12 1
    23   11   30 1
    24   11   31 1
    25   12   13 1
    26   12   32 1
    27   12   33 1
    28   13   17 1
    29   13   14 1
    30   14   15 2
    31   14   34 1
    32   15   16 1
    33   15   35 1
    34   16   17 2
    35   16   36 1
    36   18   19 ar
    37   18   37 1
    38   19   20 1
##########                 Name:     ZINC000614852669
##########          Protonation:                 none
##########               SMILES:   CN1N=C(C(F)F)C2=C1SC(C(=O)N[C@@H](CO)C[NH+](C)C)=C2
##########            Long Name:   NO_LONG_NAME
##########          FlexRecCode: 1
##########               Number:                 4964
##########   Ligand Source File: /nfs/db/export/3D/ED/ADRO/EDADRO.xdrk.db2.gz
##########                 Rank:                    1
##########               Setnum:                  104
##########             Matchnum:                    1
##########                Cloud:                    1
##########        Electrostatic:           -39.604675
##########                 Gist:             0.000000
##########        Van der Waals:           -29.909098
##########  Ligand Polar Desolv:            16.894800
########## Ligand Apolar Desolv:            -2.384137
##########      Internal Energy:             0.000000
##########      Receptor Energy:             0.000000
########## Receptor Desolvation:             0.000000
########## Receptor Hydrophobic:             0.000000
##########         Total Energy:           -55.003105
##########        Ligand Charge:             1.000000
##########            Arbitrary:    +999.9990
##########        Ligand Energy:             0.000000

@<TRIPOS>MOLECULE
 ZINC000614852669      none
   41    42     0     0     0



@<TRIPOS>ATOM
      1 C1        -15.3197    11.0785   -13.5009 C.3        1  LIG1   0.0900
      2 N1        -14.8009    12.4328   -13.2939 N.pl3      1  LIG1  -0.3300
      3 N2        -13.9091    12.8257   -12.2918 N.2        1  LIG1  -0.2100
      4 C2        -13.6639    14.0961   -12.4054 C.2        1  LIG1   0.0600
      5 C3        -12.7516    14.8994   -11.5145 C.3        1  LIG1   0.3600
      6 F1        -11.7240    15.4582   -12.2819 F          1  LIG1  -0.1800
      7 F2        -13.4824    15.9212   -10.8988 F          1  LIG1  -0.1800
      8 C4        -14.4050    14.6044   -13.5173 C.2        1  LIG1  -0.2100
      9 C5        -15.1001    13.5314   -14.0508 C.2        1  LIG1   0.0400
     10 S1        -16.0470    14.0643   -15.4339 S.3        1  LIG1   0.1900
     11 C6        -15.4750    15.7138   -15.2473 C.2        1  LIG1  -0.2900
     12 C7        -15.8611    16.8354   -16.1088 C.2        1  LIG1   0.6100
     13 O1        -15.8987    17.9648   -15.6570 O.2        1  LIG1  -0.5100
     14 N3        -16.1743    16.6158   -17.4011 N.am       1  LIG1  -0.7400
     15 C8        -16.5601    17.7365   -18.2620 C.3        1  LIG1   0.1300
     16 H1        -17.0444    18.5063   -17.6611 H          1  LIG1   0.1300
     17 C9        -15.3131    18.3199   -18.9295 C.3        1  LIG1   0.0600
     18 O2        -15.6896    19.4132   -19.7692 O.3        1  LIG1  -0.5800
     19 C10       -17.5306    17.2432   -19.3372 C.3        1  LIG1  -0.0200
     20 N4        -18.7280    16.6832   -18.6963 N.4        1  LIG1  -0.3900
     21 H2        -18.4622    15.9112   -18.1034 H          1  LIG1   0.4200
     22 C11       -19.3804    17.7207   -17.8864 C.3        1  LIG1  -0.0600
     23 C12       -19.6596    16.2096   -19.7286 C.3        1  LIG1  -0.0500
     24 C13       -14.6324    15.8023   -14.2078 C.2        1  LIG1   0.0500
     25 H3        -14.9067    10.4116   -12.7441 H          1  LIG1   0.0900
     26 H4        -16.4067    11.0897   -13.4210 H          1  LIG1   0.1100
     27 H5        -15.0318    10.7265   -14.4915 H          1  LIG1   0.0900
     28 H6        -12.3231    14.2489   -10.7521 H          1  LIG1   0.1400
     29 H7        -16.1442    15.7155   -17.7613 H          1  LIG1   0.4000
     30 H8        -14.6218    18.6713   -18.1635 H          1  LIG1   0.0700
     31 H9        -14.8289    17.5502   -19.5303 H          1  LIG1   0.0700
     32 H10       -16.3053    19.1730   -20.4752 H          1  LIG1   0.4000
     33 H11       -17.8177    18.0771   -19.9777 H          1  LIG1   0.1500
     34 H12       -17.0463    16.4734   -19.9380 H          1  LIG1   0.1500
     35 H13       -20.2689    17.3052   -17.4110 H          1  LIG1   0.1300
     36 H14       -18.6892    18.0720   -17.1205 H          1  LIG1   0.1300
     37 H15       -19.6675    18.5546   -18.5269 H          1  LIG1   0.1200
     38 H16       -20.5481    15.7941   -19.2531 H          1  LIG1   0.1300
     39 H17       -19.9467    17.0435   -20.3692 H          1  LIG1   0.1300
     40 H18       -19.1755    15.4397   -20.3294 H          1  LIG1   0.1300
     41 H19       -14.1657    16.7327   -13.9198 H          1  LIG1   0.1600
@<TRIPOS>BOND
     1    1    2 1
     2    1   25 1
     3    1   26 1
     4    1   27 1
     5    2    9 1
     6    2    3 1
     7    3    4 2
     8    4    5 1
     9    4    8 1
    10    5    6 1
    11    5    7 1
    12    5   28 1
    13    8   24 1
    14    8    9 2
    15    9   10 1
    16   10   11 1
    17   11   12 1
    18   11   24 2
    19   12   13 2
    20   12   14 am
    21   14   15 1
    22   14   29 1
    23   15   16 1
    24   15   17 1
    25   15   19 1
    26   17   18 1
    27   17   30 1
    28   17   31 1
    29   18   32 1
    30   19   20 1
    31   19   33 1
    32   19   34 1
    33   20   21 1
    34   20   22 1
    35   20   23 1
    36   22   35 1
    37   22   36 1
    38   22   37 1
    39   23   38 1
    40   23   39 1
    41   23   40 1
    42   24   41 1
##########                 Name:     ZINC000304063884
##########          Protonation:                 none
##########               SMILES:   CC1=C(C)OC(C[N@H+](CCO)CCC2=CC=CC=C2)=N1
##########            Long Name:   NO_LONG_NAME
##########          FlexRecCode: 1
##########               Number:                 8911
##########   Ligand Source File: /nfs/db/export/3D/CE/ADMO/CEADMO.xbdf.db2.gz
##########                 Rank:                    1
##########               Setnum:                  194
##########             Matchnum:                    1
##########                Cloud:                    1
##########        Electrostatic:           -40.803154
##########                 Gist:             0.000000
##########        Van der Waals:           -25.367229
##########  Ligand Polar Desolv:            13.531223
########## Ligand Apolar Desolv:            -2.364532
##########      Internal Energy:             0.000000
##########      Receptor Energy:             0.000000
########## Receptor Desolvation:             0.000000
########## Receptor Hydrophobic:             0.000000
##########         Total Energy:           -55.003689
##########        Ligand Charge:             1.000000
##########            Arbitrary:    +999.9990
##########        Ligand Energy:             0.000000

@<TRIPOS>MOLECULE
 ZINC000304063884      none
   43    44     0     0     0



@<TRIPOS>ATOM
      1 C1        -22.2509    17.9140   -20.7181 C.3        1  LIG1  -0.0800
      2 C2        -21.4622    17.4060   -19.5388 C.2        1  LIG1  -0.0200
      3 C3        -21.8664    16.4786   -18.6550 C.2        1  LIG1   0.0000
      4 C4        -23.1882    15.7548   -18.6585 C.3        1  LIG1  -0.0800
      5 O1        -20.8676    16.3170   -17.7650 O.3        1  LIG1  -0.1900
      6 C5        -19.8719    17.1425   -18.1140 C.2        1  LIG1   0.1000
      7 C6        -18.5576    17.2870   -17.3912 C.3        1  LIG1   0.1000
      8 N1        -17.5843    16.3394   -17.9508 N.4        1  LIG1  -0.3800
      9 H1        -17.9287    15.3977   -17.8378 H          1  LIG1   0.4200
     10 C7        -16.3031    16.4801   -17.2464 C.3        1  LIG1  -0.0200
     11 C8        -16.3681    15.7296   -15.9147 C.3        1  LIG1   0.0500
     12 O2        -16.6273    14.3458   -16.1600 O.3        1  LIG1  -0.5600
     13 C9        -17.3914    16.6220   -19.3794 C.3        1  LIG1  -0.0100
     14 C10       -16.8694    18.0499   -19.5509 C.3        1  LIG1  -0.1000
     15 C11       -16.6715    18.3398   -21.0164 C.ar       1  LIG1  -0.1100
     16 C12       -15.4573    18.0650   -21.6175 C.ar       1  LIG1  -0.1100
     17 C13       -15.2758    18.3309   -22.9619 C.ar       1  LIG1  -0.1100
     18 C14       -16.3084    18.8713   -23.7051 C.ar       1  LIG1  -0.1000
     19 C15       -17.5228    19.1452   -23.1043 C.ar       1  LIG1  -0.1100
     20 C16       -17.7057    18.8753   -21.7609 C.ar       1  LIG1  -0.1100
     21 N2        -20.2247    17.7951   -19.1848 N.2        1  LIG1  -0.4000
     22 H2        -23.2194    17.4149   -20.7497 H          1  LIG1   0.0800
     23 H3        -22.3994    18.9893   -20.6200 H          1  LIG1   0.0800
     24 H4        -21.7045    17.7051   -21.6379 H          1  LIG1   0.0800
     25 H5        -23.2257    15.0627   -17.8170 H          1  LIG1   0.1000
     26 H6        -23.9989    16.4781   -18.5701 H          1  LIG1   0.0900
     27 H7        -23.2962    15.1999   -19.5904 H          1  LIG1   0.1000
     28 H8        -18.1857    18.3043   -17.5132 H          1  LIG1   0.1500
     29 H9        -18.7007    17.0771   -16.3312 H          1  LIG1   0.1900
     30 H10       -15.5037    16.0638   -17.8594 H          1  LIG1   0.1400
     31 H11       -16.1053    17.5356   -17.0593 H          1  LIG1   0.1400
     32 H12       -15.4173    15.8340   -15.3920 H          1  LIG1   0.0900
     33 H13       -17.1674    16.1459   -15.3016 H          1  LIG1   0.0700
     34 H14       -17.4593    14.1777   -16.6232 H          1  LIG1   0.4000
     35 H15       -16.6694    15.9189   -19.7946 H          1  LIG1   0.1400
     36 H16       -18.3422    16.5174   -19.9022 H          1  LIG1   0.1400
     37 H17       -17.5917    18.7530   -19.1357 H          1  LIG1   0.0900
     38 H18       -15.9187    18.1545   -19.0282 H          1  LIG1   0.1000
     39 H19       -14.6506    17.6428   -21.0368 H          1  LIG1   0.1200
     40 H20       -14.3271    18.1169   -23.4312 H          1  LIG1   0.1300
     41 H21       -16.1663    19.0796   -24.7553 H          1  LIG1   0.1300
     42 H22       -18.3295    19.5678   -23.6849 H          1  LIG1   0.1300
     43 H23       -18.6545    19.0895   -21.2914 H          1  LIG1   0.1200
@<TRIPOS>BOND
     1    1    2 1
     2    1   22 1
     3    1   23 1
     4    1   24 1
     5    2   21 1
     6    2    3 2
     7    3    4 1
     8    3    5 1
     9    4   25 1
    10    4   26 1
    11    4   27 1
    12    5    6 1
    13    6    7 1
    14    6   21 2
    15    7    8 1
    16    7   28 1
    17    7   29 1
    18    8    9 1
    19    8   10 1
    20    8   13 1
    21   10   11 1
    22   10   30 1
    23   10   31 1
    24   11   12 1
    25   11   32 1
    26   11   33 1
    27   12   34 1
    28   13   14 1
    29   13   35 1
    30   13   36 1
    31   14   15 1
    32   14   37 1
    33   14   38 1
    34   15   20 ar
    35   15   16 ar
    36   16   17 ar
    37   16   39 1
    38   17   18 ar
    39   17   40 1
    40   18   19 ar
    41   18   41 1
    42   19   20 ar
    43   19   42 1
    44   20   43 1
##########                 Name:     ZINC000493120809
##########          Protonation:                 none
##########               SMILES:   C[C@H]([NH3+])C1CCN(C(=O)/C=C/C2=CC=C(Br)O2)CC1
##########            Long Name:   NO_LONG_NAME
##########          FlexRecCode: 1
##########               Number:                12014
##########   Ligand Source File: /nfs/db/export/3D/EF/ADRO/EFADRO.xbbt.db2.gz
##########                 Rank:                    1
##########               Setnum:                   37
##########             Matchnum:                    1
##########                Cloud:                    1
##########        Electrostatic:           -42.904488
##########                 Gist:             0.000000
##########        Van der Waals:           -27.687782
##########  Ligand Polar Desolv:            18.960352
########## Ligand Apolar Desolv:            -3.372535
##########      Internal Energy:             0.000000
##########      Receptor Energy:             0.000000
########## Receptor Desolvation:             0.000000
########## Receptor Hydrophobic:             0.000000
##########         Total Energy:           -55.004452
##########        Ligand Charge:             1.000000
##########            Arbitrary:    +999.9990
##########        Ligand Energy:             0.000000

@<TRIPOS>MOLECULE
 ZINC000493120809      none
   39    40     0     0     0



@<TRIPOS>ATOM
      1 C1        -20.6216    17.4005   -18.7297 C.3        1  LIG1  -0.1900
      2 C2        -19.1360    17.2914   -19.0789 C.3        1  LIG1   0.0300
      3 H1        -18.9544    17.7621   -20.0451 H          1  LIG1   0.1500
      4 N1        -18.7510    15.8752   -19.1439 N.4        1  LIG1  -0.6400
      5 H2        -19.2982    15.4102   -19.8527 H          1  LIG1   0.4400
      6 H3        -17.7712    15.8034   -19.3742 H          1  LIG1   0.4300
      7 H4        -18.9192    15.4396   -18.2494 H          1  LIG1   0.4300
      8 C3        -18.3063    17.9968   -18.0041 C.3        1  LIG1  -0.1100
      9 C4        -18.1583    17.0776   -16.7895 C.3        1  LIG1  -0.1500
     10 C5        -17.3567    17.8000   -15.7021 C.3        1  LIG1   0.1000
     11 N2        -16.0819    18.2519   -16.2759 N.am       1  LIG1  -0.6200
     12 C6        -14.9118    17.9246   -15.6923 C.2        1  LIG1   0.5600
     13 O1        -13.9551    18.6726   -15.7846 O.2        1  LIG1  -0.5300
     14 C7        -14.7951    16.7124   -14.9724 C.2        1  LIG1  -0.2300
     15 C8        -13.6171    16.3829   -14.3849 C.2        1  LIG1   0.0400
     16 C9        -13.5003    15.1705   -13.6649 C.2        1  LIG1  -0.0100
     17 C10       -12.6748    14.9440   -12.5823 C.2        1  LIG1  -0.1400
     18 C11       -12.8855    13.6140   -12.1908 C.2        1  LIG1  -0.1600
     19 C12       -13.8099    13.0913   -13.0297 C.2        1  LIG1  -0.0100
     20 Br1       -14.4764    11.3228   -12.9647 Br         1  LIG1   0.0700
     21 O2        -14.1807    14.0308   -13.9108 O.3        1  LIG1  -0.1500
     22 C13       -16.1066    19.0667   -17.4983 C.3        1  LIG1   0.1100
     23 C14       -16.9222    18.3300   -18.5654 C.3        1  LIG1  -0.1400
     24 H5        -20.8033    16.9299   -17.7635 H          1  LIG1   0.1100
     25 H6        -20.9074    18.4512   -18.6815 H          1  LIG1   0.0800
     26 H7        -21.2126    16.8980   -19.4955 H          1  LIG1   0.0800
     27 H8        -18.8078    18.9169   -17.7038 H          1  LIG1   0.1200
     28 H9        -19.1454    16.8217   -16.4043 H          1  LIG1   0.1000
     29 H10       -17.6349    16.1678   -17.0834 H          1  LIG1   0.0600
     30 H11       -17.9212    18.6606   -15.3430 H          1  LIG1   0.0800
     31 H12       -17.1635    17.1163   -14.8754 H          1  LIG1   0.1000
     32 H13       -15.6435    16.0492   -14.8903 H          1  LIG1   0.1300
     33 H14       -12.7686    17.0461   -14.4669 H          1  LIG1   0.1700
     34 H15       -11.9989    15.6521   -12.1262 H          1  LIG1   0.1700
     35 H16       -12.4005    13.1024   -11.3725 H          1  LIG1   0.1700
     36 H17       -16.5691    20.0305   -17.2856 H          1  LIG1   0.0800
     37 H18       -15.0885    19.2187   -17.8568 H          1  LIG1   0.1100
     38 H19       -16.4105    17.4084   -18.8427 H          1  LIG1   0.0600
     39 H20       -17.0295    18.9657   -19.4444 H          1  LIG1   0.0900
@<TRIPOS>BOND
     1    1    2 1
     2    1   24 1
     3    1   25 1
     4    1   26 1
     5    2    3 1
     6    2    4 1
     7    2    8 1
     8    4    5 1
     9    4    6 1
    10    4    7 1
    11    8   23 1
    12    8    9 1
    13    8   27 1
    14    9   10 1
    15    9   28 1
    16    9   29 1
    17   10   11 1
    18   10   30 1
    19   10   31 1
    20   11   12 am
    21   11   22 1
    22   12   13 2
    23   12   14 1
    24   14   15 2
    25   14   32 1
    26   15   16 1
    27   15   33 1
    28   16   21 1
    29   16   17 2
    30   17   18 1
    31   17   34 1
    32   18   19 2
    33   18   35 1
    34   19   20 1
    35   19   21 1
    36   22   23 1
    37   22   36 1
    38   22   37 1
    39   23   38 1
    40   23   39 1
##########                 Name:     ZINC000449583914
##########          Protonation:                 none
##########               SMILES:   CN1N=CC=C1[C@@H]1C[C@@H]([NH2+][C@H]2CSCCC3=CC=CC=C32)CCO1
##########            Long Name:   NO_LONG_NAME
##########          FlexRecCode: 1
##########               Number:                 8399
##########   Ligand Source File: /nfs/db/export/3D/EG/ADRO/EGADRO.xaha.db2.gz
##########                 Rank:                    1
##########               Setnum:                   16
##########             Matchnum:                    1
##########                Cloud:                    1
##########        Electrostatic:           -36.389164
##########                 Gist:             0.000000
##########        Van der Waals:           -31.225445
##########  Ligand Polar Desolv:            17.423256
########## Ligand Apolar Desolv:            -4.813511
##########      Internal Energy:             0.000000
##########      Receptor Energy:             0.000000
########## Receptor Desolvation:             0.000000
########## Receptor Hydrophobic:             0.000000
##########         Total Energy:           -55.004864
##########        Ligand Charge:             1.000000
##########            Arbitrary:    +999.9990
##########        Ligand Energy:             0.000000

@<TRIPOS>MOLECULE
 ZINC000449583914      none
   50    53     0     0     0



@<TRIPOS>ATOM
      1 C1        -13.8514    16.3882   -14.8114 C.3        1  LIG1   0.0900
      2 N1        -14.8129    15.2969   -14.6354 N.pl3      1  LIG1  -0.3700
      3 N2        -14.6347    14.1632   -13.8319 N.2        1  LIG1  -0.2700
      4 C2        -15.7064    13.4192   -13.9314 C.2        1  LIG1   0.0500
      5 C3        -16.6000    14.0543   -14.7999 C.2        1  LIG1  -0.2200
      6 C4        -16.0289    15.2091   -15.2139 C.2        1  LIG1   0.0500
      7 C5        -16.6399    16.2165   -16.1637 C.3        1  LIG1   0.1600
      8 H1        -17.7482    16.1744   -16.0268 H          1  LIG1   0.0600
      9 C6        -16.3121    15.8760   -17.6245 C.3        1  LIG1  -0.1700
     10 C7        -16.9382    16.8964   -18.5771 C.3        1  LIG1   0.0200
     11 H2        -16.3241    16.9754   -19.4883 H          1  LIG1   0.1500
     12 N3        -18.2926    16.4281   -18.9836 N.4        1  LIG1  -0.5100
     13 H3        -18.2146    15.5364   -19.4492 H          1  LIG1   0.4300
     14 H4        -18.8744    16.3303   -18.1651 H          1  LIG1   0.4200
     15 C8        -18.8950    17.4070   -19.8985 C.3        1  LIG1   0.0800
     16 H5        -18.6640    18.4157   -19.5561 H          1  LIG1   0.1600
     17 C9        -18.3341    17.2044   -21.3041 C.3        1  LIG1  -0.1400
     18 S1        -18.3328    18.7633   -22.2185 S.3        1  LIG1  -0.1700
     19 C10       -20.0740    19.2294   -22.3530 C.3        1  LIG1  -0.1000
     20 C11       -20.6724    19.4766   -20.9702 C.3        1  LIG1  -0.0900
     21 C12       -21.2214    18.1761   -20.4268 C.ar       1  LIG1  -0.0600
     22 C13       -22.5948    17.9797   -20.4430 C.ar       1  LIG1  -0.0900
     23 C14       -23.1245    16.8006   -19.9531 C.ar       1  LIG1  -0.0900
     24 C15       -22.2860    15.8236   -19.4503 C.ar       1  LIG1  -0.1000
     25 C16       -20.9189    16.0270   -19.4370 C.ar       1  LIG1  -0.1400
     26 C17       -20.3948    17.2146   -19.9283 C.ar       1  LIG1  -0.1300
     27 C18       -17.0747    18.2793   -17.9383 C.3        1  LIG1  -0.1800
     28 C19       -16.0281    18.4584   -16.8488 C.3        1  LIG1   0.0500
     29 O1        -16.2019    17.5281   -15.7798 O.3        1  LIG1  -0.3400
     30 H6        -12.9584    16.1846   -14.2204 H          1  LIG1   0.0800
     31 H7        -13.5801    16.4672   -15.8642 H          1  LIG1   0.1000
     32 H8        -14.3003    17.3248   -14.4807 H          1  LIG1   0.0800
     33 H9        -15.8721    12.4772   -13.4299 H          1  LIG1   0.1900
     34 H10       -17.5756    13.6897   -15.0861 H          1  LIG1   0.1600
     35 H11       -15.2231    15.8710   -17.7584 H          1  LIG1   0.1400
     36 H12       -16.6964    14.8750   -17.8570 H          1  LIG1   0.1000
     37 H13       -17.3134    16.8284   -21.2330 H          1  LIG1   0.1300
     38 H14       -18.9483    16.4769   -21.8347 H          1  LIG1   0.1200
     39 H15       -20.1577    20.1386   -22.9484 H          1  LIG1   0.1300
     40 H16       -20.6240    18.4268   -22.8443 H          1  LIG1   0.1000
     41 H17       -19.8991    19.8534   -20.3007 H          1  LIG1   0.0900
     42 H18       -21.4770    20.2079   -21.0468 H          1  LIG1   0.1000
     43 H19       -23.2475    18.7450   -20.8364 H          1  LIG1   0.1400
     44 H20       -24.1929    16.6430   -19.9630 H          1  LIG1   0.1400
     45 H21       -22.6987    14.9017   -19.0683 H          1  LIG1   0.1400
     46 H22       -20.2613    15.2655   -19.0443 H          1  LIG1   0.1100
     47 H23       -16.9413    19.0485   -18.7066 H          1  LIG1   0.1300
     48 H24       -18.0762    18.3821   -17.5067 H          1  LIG1   0.1100
     49 H25       -15.0228    18.3260   -17.2804 H          1  LIG1   0.1300
     50 H26       -16.0885    19.4828   -16.4467 H          1  LIG1   0.0500
@<TRIPOS>BOND
     1    1    2 1
     2    1   30 1
     3    1   31 1
     4    1   32 1
     5    2    6 1
     6    2    3 1
     7    3    4 2
     8    4    5 1
     9    4   33 1
    10    5    6 2
    11    5   34 1
    12    6    7 1
    13    7    8 1
    14    7   29 1
    15    7    9 1
    16    9   10 1
    17    9   35 1
    18    9   36 1
    19   10   11 1
    20   10   12 1
    21   10   27 1
    22   12   13 1
    23   12   14 1
    24   12   15 1
    25   15   16 1
    26   15   26 1
    27   15   17 1
    28   17   18 1
    29   17   37 1
    30   17   38 1
    31   18   19 1
    32   19   20 1
    33   19   39 1
    34   19   40 1
    35   20   21 1
    36   20   41 1
    37   20   42 1
    38   21   26 ar
    39   21   22 ar
    40   22   23 ar
    41   22   43 1
    42   23   24 ar
    43   23   44 1
    44   24   25 ar
    45   24   45 1
    46   25   26 ar
    47   25   46 1
    48   27   28 1
    49   27   47 1
    50   27   48 1
    51   28   29 1
    52   28   49 1
    53   28   50 1
##########                 Name:     ZINC000662137220
##########          Protonation:                 none
##########               SMILES:   C[C@H]1C[N@H+](CC2=NC=C(C3=CC=C(F)C=C3)O2)C[C@]1(C)CO
##########            Long Name:   NO_LONG_NAME
##########          FlexRecCode: 1
##########               Number:                 2953
##########   Ligand Source File: /nfs/db/export/3D/DF/ADRO/DFADRO.xbho.db2.gz
##########                 Rank:                    1
##########               Setnum:                  248
##########             Matchnum:                    1
##########                Cloud:                    1
##########        Electrostatic:           -33.919781
##########                 Gist:             0.000000
##########        Van der Waals:           -30.692444
##########  Ligand Polar Desolv:            12.371870
########## Ligand Apolar Desolv:            -2.761043
##########      Internal Energy:             0.000000
##########      Receptor Energy:             0.000000
########## Receptor Desolvation:             0.000000
########## Receptor Hydrophobic:             0.000000
##########         Total Energy:           -55.001404
##########        Ligand Charge:             1.000000
##########            Arbitrary:    +999.9990
##########        Ligand Energy:             0.000000

@<TRIPOS>MOLECULE
 ZINC000662137220      none
   44    46     0     0     0



@<TRIPOS>ATOM
      1 C1        -21.6510    16.4345   -17.1984 C.3        1  LIG1  -0.1600
      2 C2        -20.9409    17.4362   -18.1113 C.3        1  LIG1  -0.1000
      3 H1        -21.4594    18.3948   -18.0962 H          1  LIG1   0.1200
      4 C3        -19.4718    17.6143   -17.6718 C.3        1  LIG1   0.0000
      5 N1        -18.7077    16.6712   -18.5286 N.4        1  LIG1  -0.4000
      6 H2        -18.7864    15.7298   -18.1745 H          1  LIG1   0.4300
      7 C4        -17.2974    17.0748   -18.6060 C.3        1  LIG1   0.1200
      8 C5        -16.5755    16.6188   -17.3641 C.2        1  LIG1   0.1000
      9 N2        -15.7478    17.3406   -16.6621 N.2        1  LIG1  -0.4200
     10 C6        -15.3004    16.6088   -15.6305 C.2        1  LIG1  -0.0300
     11 C7        -15.8853    15.3864   -15.7125 C.2        1  LIG1   0.0600
     12 C8        -15.6883    14.2515   -14.7859 C.ar       1  LIG1  -0.0600
     13 C9        -16.3578    13.0461   -15.0025 C.ar       1  LIG1  -0.0600
     14 C10       -16.1700    11.9903   -14.1352 C.ar       1  LIG1  -0.1500
     15 C11       -15.3186    12.1247   -13.0501 C.ar       1  LIG1   0.1300
     16 F1        -15.1382    11.0875   -12.2036 F          1  LIG1  -0.1200
     17 C12       -14.6510    13.3190   -12.8305 C.ar       1  LIG1  -0.1500
     18 C13       -14.8278    14.3797   -13.6944 C.ar       1  LIG1  -0.0500
     19 O1        -16.6858    15.4078   -16.8007 O.3        1  LIG1  -0.1900
     20 C14       -19.3561    16.7813   -19.8607 C.3        1  LIG1   0.0100
     21 C15       -20.8671    16.8894   -19.5520 C.3        1  LIG1  -0.0700
     22 C16       -21.5257    15.5107   -19.6311 C.3        1  LIG1  -0.1500
     23 C17       -21.5408    17.8579   -20.5261 C.3        1  LIG1   0.0900
     24 O2        -22.9125    18.0234   -20.1613 O.3        1  LIG1  -0.5700
     25 H3        -21.1222    15.4817   -17.2234 H          1  LIG1   0.0600
     26 H4        -21.6620    16.8174   -16.1780 H          1  LIG1   0.0700
     27 H5        -22.6749    16.2908   -17.5436 H          1  LIG1   0.0800
     28 H6        -19.1439    18.6387   -17.8477 H          1  LIG1   0.1400
     29 H7        -19.3551    17.3521   -16.6201 H          1  LIG1   0.1300
     30 H8        -16.8365    16.6190   -19.4822 H          1  LIG1   0.1700
     31 H9        -17.2339    18.1602   -18.6852 H          1  LIG1   0.1600
     32 H10       -14.6019    16.9331   -14.8732 H          1  LIG1   0.2000
     33 H11       -17.0218    12.9404   -15.8477 H          1  LIG1   0.1400
     34 H12       -16.6877    11.0572   -14.3017 H          1  LIG1   0.1500
     35 H13       -13.9883    13.4185   -11.9836 H          1  LIG1   0.1500
     36 H14       -14.3069    15.3100   -13.5226 H          1  LIG1   0.1500
     37 H15       -19.0101    17.6755   -20.3792 H          1  LIG1   0.1400
     38 H16       -19.1525    15.8921   -20.4572 H          1  LIG1   0.1400
     39 H17       -21.4660    15.1376   -20.6536 H          1  LIG1   0.0600
     40 H18       -21.0090    14.8222   -18.9626 H          1  LIG1   0.0800
     41 H19       -22.5713    15.5898   -19.3337 H          1  LIG1   0.0800
     42 H20       -21.0355    18.8230   -20.4868 H          1  LIG1   0.0700
     43 H21       -21.4797    17.4568   -21.5377 H          1  LIG1   0.0600
     44 H22       -23.4247    17.2034   -20.1744 H          1  LIG1   0.4000
@<TRIPOS>BOND
     1    1    2 1
     2    1   25 1
     3    1   26 1
     4    1   27 1
     5    2    3 1
     6    2   21 1
     7    2    4 1
     8    4    5 1
     9    4   28 1
    10    4   29 1
    11    5    6 1
    12    5    7 1
    13    5   20 1
    14    7    8 1
    15    7   30 1
    16    7   31 1
    17    8   19 1
    18    8    9 2
    19    9   10 1
    20   10   11 2
    21   10   32 1
    22   11   12 1
    23   11   19 1
    24   12   18 ar
    25   12   13 ar
    26   13   14 ar
    27   13   33 1
    28   14   15 ar
    29   14   34 1
    30   15   16 1
    31   15   17 ar
    32   17   18 ar
    33   17   35 1
    34   18   36 1
    35   20   21 1
    36   20   37 1
    37   20   38 1
    38   21   22 1
    39   21   23 1
    40   22   39 1
    41   22   40 1
    42   22   41 1
    43   23   24 1
    44   23   42 1
    45   23   43 1
    46   24   44 1
##########                 Name:     ZINC000433083202
##########          Protonation:                 none
##########               SMILES:   C=CCN1CC[C@@H]([N@H+]2CC[C@H](C3=CC=C(CC)C=C3)C2)C1=O
##########            Long Name:   NO_LONG_NAME
##########          FlexRecCode: 1
##########               Number:                 7140
##########   Ligand Source File: /nfs/db/export/3D/CF/EDMO/CFEDMO.xcx.db2.gz
##########                 Rank:                    1
##########               Setnum:                   19
##########             Matchnum:                    1
##########                Cloud:                    1
##########        Electrostatic:           -32.468548
##########                 Gist:             0.000000
##########        Van der Waals:           -30.038841
##########  Ligand Polar Desolv:            14.165906
########## Ligand Apolar Desolv:            -6.661326
##########      Internal Energy:             0.000000
##########      Receptor Energy:             0.000000
########## Receptor Desolvation:             0.000000
########## Receptor Hydrophobic:             0.000000
##########         Total Energy:           -55.002808
##########        Ligand Charge:             1.000000
##########            Arbitrary:    +999.9990
##########        Ligand Energy:             0.000000

@<TRIPOS>MOLECULE
 ZINC000433083202      none
   49    51     0     0     0



@<TRIPOS>ATOM
      1 C1        -22.6363    18.4761   -21.4216 C.2        1  LIG1  -0.1500
      2 C2        -23.1286    17.4093   -20.8422 C.2        1  LIG1  -0.2000
      3 C3        -22.2151    16.2789   -20.4438 C.3        1  LIG1   0.1500
      4 N1        -21.2168    16.7705   -19.4908 N.am       1  LIG1  -0.5900
      5 C4        -21.5379    17.3639   -18.1875 C.3        1  LIG1   0.0900
      6 C5        -20.2218    17.3213   -17.3798 C.3        1  LIG1  -0.1500
      7 C6        -19.1613    17.3157   -18.5051 C.3        1  LIG1  -0.0100
      8 H1        -18.8265    18.3307   -18.7190 H          1  LIG1   0.1700
      9 N2        -18.0212    16.4673   -18.1331 N.4        1  LIG1  -0.3800
     10 H2        -18.3290    15.5192   -17.9764 H          1  LIG1   0.4200
     11 C7        -16.9882    16.5010   -19.1997 C.3        1  LIG1   0.0000
     12 C8        -15.6978    16.0714   -18.4572 C.3        1  LIG1  -0.1400
     13 C9        -15.8539    16.7457   -17.0748 C.3        1  LIG1  -0.0600
     14 H3        -15.3076    17.6886   -17.0500 H          1  LIG1   0.1200
     15 C10       -15.3603    15.8276   -15.9864 C.ar       1  LIG1  -0.1100
     16 C11       -15.9474    14.5889   -15.8080 C.ar       1  LIG1  -0.1200
     17 C12       -15.4947    13.7468   -14.8097 C.ar       1  LIG1  -0.1100
     18 C13       -14.4546    14.1432   -13.9900 C.ar       1  LIG1  -0.0600
     19 C14       -13.9613    13.2253   -12.9013 C.3        1  LIG1  -0.0900
     20 C15       -12.8133    13.8992   -12.1471 C.3        1  LIG1  -0.1500
     21 C16       -13.8665    15.3813   -14.1691 C.ar       1  LIG1  -0.1100
     22 C17       -14.3168    16.2219   -15.1700 C.ar       1  LIG1  -0.1000
     23 C18       -17.3658    16.9979   -16.9179 C.3        1  LIG1   0.0000
     24 C19       -19.8889    16.7308   -19.6955 C.2        1  LIG1   0.5000
     25 O1        -19.3526    16.2959   -20.6926 O.2        1  LIG1  -0.5000
     26 H4        -23.2910    19.2863   -21.7073 H          1  LIG1   0.1100
     27 H5        -21.5753    18.5474   -21.6099 H          1  LIG1   0.1000
     28 H6        -24.1891    17.3399   -20.6500 H          1  LIG1   0.1100
     29 H7        -22.8004    15.4851   -19.9797 H          1  LIG1   0.1000
     30 H8        -21.7118    15.8893   -21.3286 H          1  LIG1   0.1000
     31 H9        -21.8698    18.3944   -18.3138 H          1  LIG1   0.1000
     32 H10       -22.3076    16.7777   -17.6856 H          1  LIG1   0.1000
     33 H11       -20.1203    18.2069   -16.7525 H          1  LIG1   0.1300
     34 H12       -20.1605    16.4122   -16.7816 H          1  LIG1   0.1000
     35 H13       -17.2300    15.7924   -19.9920 H          1  LIG1   0.1500
     36 H14       -16.8831    17.5085   -19.6020 H          1  LIG1   0.1400
     37 H15       -15.6545    14.9871   -18.3548 H          1  LIG1   0.1000
     38 H16       -14.8135    16.4470   -18.9720 H          1  LIG1   0.1200
     39 H17       -16.7600    14.2793   -16.4485 H          1  LIG1   0.1100
     40 H18       -15.9538    12.7793   -14.6699 H          1  LIG1   0.1300
     41 H19       -14.7758    13.0126   -12.2086 H          1  LIG1   0.0800
     42 H20       -13.6081    12.2938   -13.3437 H          1  LIG1   0.0800
     43 H21       -12.4567    13.2352   -11.3596 H          1  LIG1   0.0600
     44 H22       -11.9991    14.1120   -12.8396 H          1  LIG1   0.0600
     45 H23       -13.1667    14.8306   -11.7046 H          1  LIG1   0.0600
     46 H24       -13.0537    15.6909   -13.5290 H          1  LIG1   0.1300
     47 H25       -13.8574    17.1893   -15.3101 H          1  LIG1   0.1300
     48 H26       -17.5568    18.0676   -16.8312 H          1  LIG1   0.1400
     49 H27       -17.7395    16.4786   -16.0356 H          1  LIG1   0.1400
@<TRIPOS>BOND
     1    1    2 2
     2    1   26 1
     3    1   27 1
     4    2    3 1
     5    2   28 1
     6    3    4 1
     7    3   29 1
     8    3   30 1
     9    4   24 am
    10    4    5 1
    11    5    6 1
    12    5   31 1
    13    5   32 1
    14    6    7 1
    15    6   33 1
    16    6   34 1
    17    7    8 1
    18    7    9 1
    19    7   24 1
    20    9   10 1
    21    9   23 1
    22    9   11 1
    23   11   12 1
    24   11   35 1
    25   11   36 1
    26   12   13 1
    27   12   37 1
    28   12   38 1
    29   13   14 1
    30   13   15 1
    31   13   23 1
    32   15   22 ar
    33   15   16 ar
    34   16   17 ar
    35   16   39 1
    36   17   18 ar
    37   17   40 1
    38   18   19 1
    39   18   21 ar
    40   19   20 1
    41   19   41 1
    42   19   42 1
    43   20   43 1
    44   20   44 1
    45   20   45 1
    46   21   22 ar
    47   21   46 1
    48   22   47 1
    49   23   48 1
    50   23   49 1
    51   24   25 2
##########                 Name:     ZINC000527829489
##########          Protonation:                 none
##########               SMILES:   C[NH+](C)C(C)(C)CNC1=NN2C(=NN=C2C2=CC=C(F)C=C2)C=C1
##########            Long Name:   NO_LONG_NAME
##########          FlexRecCode: 1
##########               Number:                  356
##########   Ligand Source File: /nfs/db/export/3D/EE/ADRO/EEADRO.xcft.db2.gz
##########                 Rank:                    1
##########               Setnum:                   43
##########             Matchnum:                    1
##########                Cloud:                    1
##########        Electrostatic:           -38.806282
##########                 Gist:             0.000000
##########        Van der Waals:           -32.599327
##########  Ligand Polar Desolv:            22.522301
########## Ligand Apolar Desolv:            -6.120515
##########      Internal Energy:             0.000000
##########      Receptor Energy:             0.000000
########## Receptor Desolvation:             0.000000
########## Receptor Hydrophobic:             0.000000
##########         Total Energy:           -55.003822
##########        Ligand Charge:             1.000000
##########            Arbitrary:    +999.9990
##########        Ligand Energy:             0.000000

@<TRIPOS>MOLECULE
 ZINC000527829489      none
   46    48     0     0     0



@<TRIPOS>ATOM
      1 C1        -20.0506    17.1291   -17.1638 C.3        1  LIG1  -0.0600
      2 N1        -19.9611    16.2791   -18.3586 N.4        1  LIG1  -0.3800
      3 H1        -19.3692    15.4857   -18.1634 H          1  LIG1   0.4200
      4 C2        -21.3034    15.8095   -18.7271 C.3        1  LIG1  -0.0600
      5 C3        -19.3913    17.0538   -19.4691 C.3        1  LIG1   0.0500
      6 C4        -19.2981    16.1684   -20.7135 C.3        1  LIG1  -0.1800
      7 C5        -20.2890    18.2567   -19.7652 C.3        1  LIG1  -0.1800
      8 C6        -17.9933    17.5429   -19.0853 C.3        1  LIG1   0.1100
      9 N2        -17.2885    16.4846   -18.3576 N.pl3      1  LIG1  -0.7200
     10 C7        -16.3375    16.8152   -17.3980 C.2        1  LIG1   0.4200
     11 N3        -15.9955    15.9292   -16.4916 N.2        1  LIG1  -0.3300
     12 N4        -15.0427    16.2414   -15.5201 N.pl3      1  LIG1  -0.2700
     13 C8        -14.4541    17.4815   -15.5051 C.2        1  LIG1   0.1200
     14 N5        -13.6036    17.4957   -14.4892 N.2        1  LIG1  -0.2300
     15 N6        -13.6316    16.3587   -13.8867 N.2        1  LIG1  -0.2400
     16 C9        -14.4959    15.5541   -14.4774 C.2        1  LIG1   0.2600
     17 C10       -14.8124    14.1661   -14.0812 C.ar       1  LIG1  -0.0400
     18 C11       -14.7197    13.7811   -12.7424 C.ar       1  LIG1  -0.0600
     19 C12       -15.0166    12.4845   -12.3783 C.ar       1  LIG1  -0.1600
     20 C13       -15.4055    11.5642   -13.3381 C.ar       1  LIG1   0.1200
     21 F1        -15.6949    10.2953   -12.9759 F          1  LIG1  -0.1300
     22 C14       -15.5002    11.9409   -14.6688 C.ar       1  LIG1  -0.1500
     23 C15       -15.2107    13.2363   -15.0435 C.ar       1  LIG1  -0.0400
     24 C16       -14.8212    18.4302   -16.4777 C.2        1  LIG1   0.0400
     25 C17       -15.7487    18.0946   -17.4136 C.2        1  LIG1  -0.2000
     26 H2        -20.6901    17.9861   -17.3747 H          1  LIG1   0.1300
     27 H3        -20.4734    16.5543   -16.3398 H          1  LIG1   0.1200
     28 H4        -19.0547    17.4774   -16.8903 H          1  LIG1   0.1300
     29 H5        -21.2370    15.1788   -19.6136 H          1  LIG1   0.1300
     30 H6        -21.7261    15.2347   -17.9031 H          1  LIG1   0.1300
     31 H7        -21.9430    16.6666   -18.9380 H          1  LIG1   0.1300
     32 H8        -18.8753    16.7431   -21.5375 H          1  LIG1   0.0900
     33 H9        -18.6585    15.3114   -20.5025 H          1  LIG1   0.1100
     34 H10       -20.2940    15.8200   -20.9869 H          1  LIG1   0.0800
     35 H11       -19.8662    18.8316   -20.5891 H          1  LIG1   0.0900
     36 H12       -21.2850    17.9084   -20.0387 H          1  LIG1   0.1100
     37 H13       -20.3555    18.8875   -18.8787 H          1  LIG1   0.0900
     38 H14       -17.4367    17.7962   -19.9875 H          1  LIG1   0.1200
     39 H15       -18.0785    18.4253   -18.4511 H          1  LIG1   0.1000
     40 H16       -17.4850    15.5535   -18.5450 H          1  LIG1   0.4100
     41 H17       -14.4157    14.4973   -11.9934 H          1  LIG1   0.1400
     42 H18       -14.9454    12.1856   -11.3429 H          1  LIG1   0.1400
     43 H19       -15.8045    11.2198   -15.4130 H          1  LIG1   0.1500
     44 H20       -15.2843    13.5289   -16.0805 H          1  LIG1   0.1500
     45 H21       -14.3695    19.4112   -16.4827 H          1  LIG1   0.1800
     46 H22       -16.0397    18.8128   -18.1659 H          1  LIG1   0.1600
@<TRIPOS>BOND
     1    1    2 1
     2    1   26 1
     3    1   27 1
     4    1   28 1
     5    2    3 1
     6    2    4 1
     7    2    5 1
     8    4   29 1
     9    4   30 1
    10    4   31 1
    11    5    6 1
    12    5    7 1
    13    5    8 1
    14    6   32 1
    15    6   33 1
    16    6   34 1
    17    7   35 1
    18    7   36 1
    19    7   37 1
    20    8    9 1
    21    8   38 1
    22    8   39 1
    23    9   10 1
    24    9   40 1
    25   10   25 1
    26   10   11 2
    27   11   12 1
    28   12   16 1
    29   12   13 1
    30   13   14 2
    31   13   24 1
    32   14   15 1
    33   15   16 2
    34   16   17 1
    35   17   23 ar
    36   17   18 ar
    37   18   19 ar
    38   18   41 1
    39   19   20 ar
    40   19   42 1
    41   20   21 1
    42   20   22 ar
    43   22   23 ar
    44   22   43 1
    45   23   44 1
    46   24   25 2
    47   24   45 1
    48   25   46 1
##########                 Name:     ZINC000236835221
##########          Protonation:                 none
##########               SMILES:   CCCN(C(=O)c1cc(I)c[nH]1)C1CC[NH2+]CC1
##########            Long Name:   NO_LONG_NAME
##########          FlexRecCode: 1
##########               Number:                 3714
##########   Ligand Source File: /nfs/db/export/3D/FE/ADRO/FEADRO.xel.db2.gz
##########                 Rank:                    1
##########               Setnum:                   42
##########             Matchnum:                    1
##########                Cloud:                    1
##########        Electrostatic:           -43.434521
##########                 Gist:             0.000000
##########        Van der Waals:           -24.027161
##########  Ligand Polar Desolv:            15.830826
########## Ligand Apolar Desolv:            -3.368638
##########      Internal Energy:             0.000000
##########      Receptor Energy:             0.000000
########## Receptor Desolvation:             0.000000
########## Receptor Hydrophobic:             0.000000
##########         Total Energy:           -54.999496
##########        Ligand Charge:             1.000000
##########            Arbitrary:    +999.9990
##########        Ligand Energy:             0.000000

@<TRIPOS>MOLECULE
 ZINC000236835221      none
   39    40     0     0     0



@<TRIPOS>ATOM
      1 C1        -23.3160    16.1209   -19.7704 C.3        1  LIG1  -0.1600
      2 C2        -22.0646    16.7918   -20.3402 C.3        1  LIG1  -0.1700
      3 C3        -21.2708    17.4393   -19.2036 C.3        1  LIG1   0.0900
      4 N1        -20.0726    18.0818   -19.7491 N.am       1  LIG1  -0.6100
      5 C4        -20.1918    19.0643   -20.6638 C.2        1  LIG1   0.6100
      6 O1        -21.1704    19.7879   -20.6556 O.2        1  LIG1  -0.5300
      7 C5        -19.1423    19.2617   -21.6692 C.2        1  LIG1  -0.0700
      8 C6        -18.3874    20.4018   -21.8462 C.2        1  LIG1  -0.0600
      9 C7        -17.5127    20.1547   -22.9093 C.2        1  LIG1  -0.1900
     10 I1        -16.0966    21.4934   -23.6781 I          1  LIG1   0.0000
     11 C8        -17.7436    18.8956   -23.3531 C.2        1  LIG1   0.0800
     12 N2        -18.7276    18.3402   -22.6039 N.pl3      1  LIG1  -0.5500
     13 C9        -18.7445    17.6561   -19.3004 C.3        1  LIG1   0.1500
     14 C10       -18.6253    17.8603   -17.7874 C.3        1  LIG1  -0.1700
     15 C11       -17.2663    17.3405   -17.3135 C.3        1  LIG1   0.0000
     16 N3        -17.1490    15.9111   -17.6266 N.4        1  LIG1  -0.5100
     17 H1        -16.2749    15.5595   -17.2656 H          1  LIG1   0.4300
     18 H2        -17.9139    15.4105   -17.1997 H          1  LIG1   0.4300
     19 C12       -17.1905    15.7148   -19.0807 C.3        1  LIG1   0.0000
     20 C13       -18.5465    16.1720   -19.6225 C.3        1  LIG1  -0.1700
     21 H3        -23.8815    15.6595   -20.5800 H          1  LIG1   0.0700
     22 H4        -23.0228    15.3565   -19.0507 H          1  LIG1   0.0700
     23 H5        -23.9353    16.8683   -19.2746 H          1  LIG1   0.0600
     24 H6        -21.4453    16.0442   -20.8360 H          1  LIG1   0.0800
     25 H7        -22.3578    17.5560   -21.0598 H          1  LIG1   0.0800
     26 H8        -21.8901    18.1867   -18.7077 H          1  LIG1   0.0900
     27 H9        -20.9776    16.6750   -18.4838 H          1  LIG1   0.1000
     28 H10       -18.4584    21.3140   -21.2723 H          1  LIG1   0.1600
     29 H11       -17.2252    18.4118   -24.1677 H          1  LIG1   0.1800
     30 H12       -19.0847    17.4449   -22.7129 H          1  LIG1   0.4300
     31 H13       -17.9817    18.2447   -19.8100 H          1  LIG1   0.1100
     32 H14       -18.7097    18.9220   -17.5556 H          1  LIG1   0.1100
     33 H15       -19.4208    17.3125   -17.2823 H          1  LIG1   0.1100
     34 H16       -16.4716    17.8890   -17.8190 H          1  LIG1   0.1300
     35 H17       -17.1781    17.4845   -16.2367 H          1  LIG1   0.1400
     36 H18       -16.3973    16.2981   -19.5484 H          1  LIG1   0.1300
     37 H19       -17.0461    14.6586   -19.3084 H          1  LIG1   0.1400
     38 H20       -19.3403    15.5893   -19.1555 H          1  LIG1   0.1100
     39 H21       -18.5745    16.0271   -20.7024 H          1  LIG1   0.1100
@<TRIPOS>BOND
     1    1    2 1
     2    1   21 1
     3    1   22 1
     4    1   23 1
     5    2    3 1
     6    2   24 1
     7    2   25 1
     8    3    4 1
     9    3   26 1
    10    3   27 1
    11    4    5 am
    12    4   13 1
    13    5    6 2
    14    5    7 1
    15    7   12 1
    16    7    8 2
    17    8    9 1
    18    8   28 1
    19    9   10 1
    20    9   11 2
    21   11   12 1
    22   11   29 1
    23   12   30 1
    24   13   20 1
    25   13   14 1
    26   13   31 1
    27   14   15 1
    28   14   32 1
    29   14   33 1
    30   15   16 1
    31   15   34 1
    32   15   35 1
    33   16   17 1
    34   16   18 1
    35   16   19 1
    36   19   20 1
    37   19   36 1
    38   19   37 1
    39   20   38 1
    40   20   39 1
##########                 Name:     ZINC000631979398
##########          Protonation:                 none
##########               SMILES:   C[C@@H](NC(=O)C1(C2=C3C=CC=CC3=CC=N2)CC1)[C@@H]1C[N@@H+](C)CCO1
##########            Long Name:   NO_LONG_NAME
##########          FlexRecCode: 1
##########               Number:                 5637
##########   Ligand Source File: /nfs/db/export/3D/EE/ADMO/EEADMO.xane.db2.gz
##########                 Rank:                    1
##########               Setnum:                   96
##########             Matchnum:                    1
##########                Cloud:                    1
##########        Electrostatic:           -40.225704
##########                 Gist:             0.000000
##########        Van der Waals:           -28.590998
##########  Ligand Polar Desolv:            17.819883
########## Ligand Apolar Desolv:            -4.004328
##########      Internal Energy:             0.000000
##########      Receptor Energy:             0.000000
########## Receptor Desolvation:             0.000000
########## Receptor Hydrophobic:             0.000000
##########         Total Energy:           -55.001148
##########        Ligand Charge:             1.000000
##########            Arbitrary:    +999.9990
##########        Ligand Energy:             0.000000

@<TRIPOS>MOLECULE
 ZINC000631979398      none
   51    54     0     0     0



@<TRIPOS>ATOM
      1 C1        -14.3932    19.8303   -18.7426 C.3        1  LIG1  -0.1700
      2 C2        -15.8270    19.3916   -18.4379 C.3        1  LIG1   0.1600
      3 H1        -16.2168    19.9771   -17.6052 H          1  LIG1   0.1100
      4 N1        -16.6649    19.6060   -19.6203 N.am       1  LIG1  -0.7200
      5 C3        -16.3715    18.9792   -20.7769 C.2        1  LIG1   0.5700
      6 O1        -15.4138    18.2377   -20.8387 O.2        1  LIG1  -0.5200
      7 C4        -17.2334    19.1999   -21.9931 C.3        1  LIG1  -0.1300
      8 C5        -18.4530    20.0587   -21.7785 C.ar       1  LIG1   0.2000
      9 C6        -19.6698    19.4699   -21.3988 C.ar       1  LIG1  -0.1000
     10 C7        -19.8002    18.0854   -21.2066 C.ar       1  LIG1  -0.0900
     11 C8        -21.0055    17.5700   -20.8380 C.ar       1  LIG1  -0.1100
     12 C9        -22.1131    18.3944   -20.6483 C.ar       1  LIG1  -0.0900
     13 C10       -22.0241    19.7419   -20.8262 C.ar       1  LIG1  -0.1100
     14 C11       -20.7986    20.3084   -21.2052 C.ar       1  LIG1  -0.0200
     15 C12       -20.6414    21.6920   -21.4042 C.ar       1  LIG1  -0.1500
     16 C13       -19.4179    22.1645   -21.7716 C.ar       1  LIG1   0.0800
     17 N2        -18.3784    21.3591   -21.9406 N.ar       1  LIG1  -0.4800
     18 C14       -16.5308    19.2962   -23.3489 C.3        1  LIG1  -0.1200
     19 C15       -17.3465    18.0507   -22.9968 C.3        1  LIG1  -0.1300
     20 C16       -15.8383    17.9074   -18.0670 C.3        1  LIG1   0.0600
     21 H2        -15.4485    17.3212   -18.8993 H          1  LIG1   0.1000
     22 C17       -17.2721    17.4681   -17.7598 C.3        1  LIG1  -0.0400
     23 N3        -17.2722    16.0577   -17.3477 N.4        1  LIG1  -0.3800
     24 H3        -18.2168    15.7666   -17.1449 H          1  LIG1   0.4300
     25 C18       -16.7268    15.2305   -18.4323 C.3        1  LIG1  -0.0600
     26 C19       -16.4420    15.8996   -16.1457 C.3        1  LIG1  -0.0500
     27 C20       -15.0097    16.3418   -16.4559 C.3        1  LIG1   0.0300
     28 O2        -15.0220    17.6976   -16.9113 O.3        1  LIG1  -0.3500
     29 H4        -14.0033    19.2447   -19.5753 H          1  LIG1   0.0800
     30 H5        -14.3852    20.8878   -19.0069 H          1  LIG1   0.0600
     31 H6        -13.7697    19.6709   -17.8629 H          1  LIG1   0.0700
     32 H7        -17.4309    20.1991   -19.5708 H          1  LIG1   0.4100
     33 H8        -18.9509    17.4338   -21.3502 H          1  LIG1   0.1300
     34 H9        -21.1048    16.5047   -20.6908 H          1  LIG1   0.1300
     35 H10       -23.0568    17.9580   -20.3560 H          1  LIG1   0.1300
     36 H11       -22.8905    20.3691   -20.6765 H          1  LIG1   0.1400
     37 H12       -21.4742    22.3660   -21.2686 H          1  LIG1   0.1400
     38 H13       -19.2900    23.2256   -21.9259 H          1  LIG1   0.1600
     39 H14       -16.9506    19.9811   -24.0857 H          1  LIG1   0.1200
     40 H15       -15.4452    19.2000   -23.3611 H          1  LIG1   0.1000
     41 H16       -16.7975    17.1350   -22.7774 H          1  LIG1   0.1200
     42 H17       -18.3029    17.9159   -23.5021 H          1  LIG1   0.1100
     43 H18       -17.6758    18.0822   -16.9547 H          1  LIG1   0.1500
     44 H19       -17.8876    17.5865   -18.6514 H          1  LIG1   0.1500
     45 H20       -16.7269    14.1842   -18.1266 H          1  LIG1   0.1200
     46 H21       -17.3424    15.3485   -19.3240 H          1  LIG1   0.1300
     47 H22       -15.7063    15.5450   -18.6511 H          1  LIG1   0.1300
     48 H23       -16.8460    16.5142   -15.3413 H          1  LIG1   0.1400
     49 H24       -16.4413    14.8535   -15.8393 H          1  LIG1   0.1500
     50 H25       -14.4019    16.2661   -15.5543 H          1  LIG1   0.1400
     51 H26       -14.5913    15.7014   -17.2325 H          1  LIG1   0.0800
@<TRIPOS>BOND
     1    1    2 1
     2    1   29 1
     3    1   30 1
     4    1   31 1
     5    2    3 1
     6    2    4 1
     7    2   20 1
     8    4    5 am
     9    4   32 1
    10    5    6 2
    11    5    7 1
    12    7   19 1
    13    7    8 1
    14    7   18 1
    15    8   17 ar
    16    8    9 ar
    17    9   14 ar
    18    9   10 ar
    19   10   11 ar
    20   10   33 1
    21   11   12 ar
    22   11   34 1
    23   12   13 ar
    24   12   35 1
    25   13   14 ar
    26   13   36 1
    27   14   15 ar
    28   15   16 ar
    29   15   37 1
    30   16   17 ar
    31   16   38 1
    32   18   19 1
    33   18   39 1
    34   18   40 1
    35   19   41 1
    36   19   42 1
    37   20   21 1
    38   20   28 1
    39   20   22 1
    40   22   23 1
    41   22   43 1
    42   22   44 1
    43   23   24 1
    44   23   25 1
    45   23   26 1
    46   25   45 1
    47   25   46 1
    48   25   47 1
    49   26   27 1
    50   26   48 1
    51   26   49 1
    52   27   28 1
    53   27   50 1
    54   27   51 1
##########                 Name:     ZINC000449548054
##########          Protonation:                 none
##########               SMILES:   C=C[C@@H]1OCCC[C@H]1[NH2+]CC1=CC2=C(C=C1SC)OCCO2
##########            Long Name:   NO_LONG_NAME
##########          FlexRecCode: 1
##########               Number:                12189
##########   Ligand Source File: /nfs/db/export/3D/DG/EDRO/DGEDRO.xcv.db2.gz
##########                 Rank:                    1
##########               Setnum:                   15
##########             Matchnum:                    1
##########                Cloud:                    1
##########        Electrostatic:           -34.543812
##########                 Gist:             0.000000
##########        Van der Waals:           -28.863697
##########  Ligand Polar Desolv:            11.819298
########## Ligand Apolar Desolv:            -3.412193
##########      Internal Energy:             0.000000
##########      Receptor Energy:             0.000000
########## Receptor Desolvation:             0.000000
########## Receptor Hydrophobic:             0.000000
##########         Total Energy:           -55.000404
##########        Ligand Charge:             1.000000
##########            Arbitrary:    +999.9990
##########        Ligand Energy:             0.000000

@<TRIPOS>MOLECULE
 ZINC000449548054      none
   46    48     0     0     0



@<TRIPOS>ATOM
      1 C1        -22.0521    15.2966   -18.1323 C.2        1  LIG1  -0.1300
      2 C2        -21.3156    16.2316   -17.5852 C.2        1  LIG1  -0.2000
      3 C3        -20.7069    17.3102   -18.4437 C.3        1  LIG1   0.1100
      4 H1        -20.6085    18.2263   -17.8613 H          1  LIG1   0.0800
      5 O1        -21.5482    17.5516   -19.5733 O.3        1  LIG1  -0.3500
      6 C4        -21.0744    18.5804   -20.4445 C.3        1  LIG1   0.0500
      7 C5        -19.7073    18.1816   -21.0066 C.3        1  LIG1  -0.1500
      8 C6        -18.7388    17.9352   -19.8457 C.3        1  LIG1  -0.1400
      9 C7        -19.3250    16.8604   -18.9251 C.3        1  LIG1  -0.0100
     10 H2        -19.4179    15.9227   -19.4730 H          1  LIG1   0.1500
     11 N1        -18.4393    16.6679   -17.7691 N.4        1  LIG1  -0.5000
     12 H3        -18.3519    17.5369   -17.2639 H          1  LIG1   0.4200
     13 H4        -18.8285    15.9630   -17.1609 H          1  LIG1   0.4300
     14 C8        -17.1143    16.2364   -18.2339 C.3        1  LIG1   0.0500
     15 C9        -16.2056    16.0390   -17.0478 C.ar       1  LIG1  -0.1500
     16 C10       -16.1310    14.8043   -16.4334 C.ar       1  LIG1  -0.0700
     17 C11       -15.2953    14.6180   -15.3421 C.ar       1  LIG1   0.0500
     18 C12       -14.5291    15.6756   -14.8664 C.ar       1  LIG1   0.1100
     19 C13       -14.6046    16.9155   -15.4822 C.ar       1  LIG1  -0.1300
     20 C14       -15.4391    17.0975   -16.5767 C.ar       1  LIG1  -0.0600
     21 S1        -15.5351    18.6729   -17.3600 S.3        1  LIG1  -0.1200
     22 C15       -14.3751    19.6797   -16.3948 C.3        1  LIG1  -0.1400
     23 O2        -13.6976    15.5095   -13.8015 O.3        1  LIG1  -0.3000
     24 C16       -13.9257    14.3598   -12.9794 C.3        1  LIG1   0.0200
     25 C17       -14.1147    13.1436   -13.8961 C.3        1  LIG1   0.0200
     26 O3        -15.2387    13.3938   -14.7467 O.3        1  LIG1  -0.3000
     27 H5        -22.2231    15.2987   -19.1986 H          1  LIG1   0.1100
     28 H6        -22.4847    14.5211   -17.5175 H          1  LIG1   0.1200
     29 H7        -21.1447    16.2295   -16.5187 H          1  LIG1   0.1300
     30 H8        -21.7793    18.7154   -21.2649 H          1  LIG1   0.1200
     31 H9        -20.9805    19.5131   -19.8884 H          1  LIG1   0.0600
     32 H10       -19.8077    17.2707   -21.5966 H          1  LIG1   0.0900
     33 H11       -19.3242    18.9843   -21.6366 H          1  LIG1   0.1000
     34 H12       -17.7794    17.5966   -20.2368 H          1  LIG1   0.1000
     35 H13       -18.5996    18.8593   -19.2846 H          1  LIG1   0.0900
     36 H14       -17.2086    15.2976   -18.7796 H          1  LIG1   0.1400
     37 H15       -16.6939    16.9978   -18.8908 H          1  LIG1   0.1500
     38 H16       -16.7251    13.9817   -16.8033 H          1  LIG1   0.1500
     39 H17       -14.0115    17.7388   -15.1126 H          1  LIG1   0.1500
     40 H18       -14.3519    20.6927   -16.7965 H          1  LIG1   0.1000
     41 H19       -14.6980    19.7088   -15.3541 H          1  LIG1   0.0900
     42 H20       -13.3784    19.2425   -16.4538 H          1  LIG1   0.1200
     43 H21       -13.0676    14.1985   -12.3269 H          1  LIG1   0.1400
     44 H22       -14.8224    14.5099   -12.3783 H          1  LIG1   0.0900
     45 H23       -13.2206    12.9973   -14.5020 H          1  LIG1   0.0900
     46 H24       -14.3005    12.2544   -13.2935 H          1  LIG1   0.1300
@<TRIPOS>BOND
     1    1    2 2
     2    1   27 1
     3    1   28 1
     4    2    3 1
     5    2   29 1
     6    3    4 1
     7    3    9 1
     8    3    5 1
     9    5    6 1
    10    6    7 1
    11    6   30 1
    12    6   31 1
    13    7    8 1
    14    7   32 1
    15    7   33 1
    16    8    9 1
    17    8   34 1
    18    8   35 1
    19    9   10 1
    20    9   11 1
    21   11   12 1
    22   11   13 1
    23   11   14 1
    24   14   15 1
    25   14   36 1
    26   14   37 1
    27   15   20 ar
    28   15   16 ar
    29   16   17 ar
    30   16   38 1
    31   17   26 1
    32   17   18 ar
    33   18   19 ar
    34   18   23 1
    35   19   20 ar
    36   19   39 1
    37   20   21 1
    38   21   22 1
    39   22   40 1
    40   22   41 1
    41   22   42 1
    42   23   24 1
    43   24   25 1
    44   24   43 1
    45   24   44 1
    46   25   26 1
    47   25   45 1
    48   25   46 1
##########                 Name:     ZINC000264073851
##########          Protonation:                 none
##########               SMILES:   C=C(C)CNC(=[NH2+])NCCCCN(C)c1ccccc1
##########            Long Name:   NO_LONG_NAME
##########          FlexRecCode: 1
##########               Number:                 6311
##########   Ligand Source File: /nfs/db/export/3D/CE/EDRO/CEEDRO.xeq.db2.gz
##########                 Rank:                    1
##########               Setnum:                  249
##########             Matchnum:                    1
##########                Cloud:                    1
##########        Electrostatic:           -31.514322
##########                 Gist:             0.000000
##########        Van der Waals:           -29.412245
##########  Ligand Polar Desolv:            11.470091
########## Ligand Apolar Desolv:            -5.545955
##########      Internal Energy:             0.000000
##########      Receptor Energy:             0.000000
########## Receptor Desolvation:             0.000000
########## Receptor Hydrophobic:             0.000000
##########         Total Energy:           -55.002430
##########        Ligand Charge:             1.000000
##########            Arbitrary:    +999.9990
##########        Ligand Energy:             0.000000

@<TRIPOS>MOLECULE
 ZINC000264073851      none
   47    47     0     0     0



@<TRIPOS>ATOM
      1 C1        -14.2511    13.9969   -14.3990 C.2        1  LIG1  -0.1300
      2 C2        -15.5305    13.9636   -14.6792 C.2        1  LIG1  -0.1700
      3 C3        -16.2015    12.6486   -14.9819 C.3        1  LIG1  -0.1200
      4 C4        -16.3310    15.2401   -14.6990 C.3        1  LIG1   0.1400
      5 N1        -16.9065    15.4351   -16.0320 N.pl3      1  LIG1  -0.6900
      6 C5        -16.2054    16.1304   -16.9885 C.cat      1  LIG1   0.7300
      7 N2        -15.0285    16.6163   -16.7094 N.pl3      1  LIG1  -0.7700
      8 H1        -14.6475    16.4873   -15.8268 H          1  LIG1   0.4400
      9 H2        -14.5339    17.1069   -17.3842 H          1  LIG1   0.4400
     10 N3        -16.7455    16.3135   -18.2394 N.pl3      1  LIG1  -0.7000
     11 C6        -15.9984    17.0546   -19.2588 C.3        1  LIG1   0.0900
     12 C7        -16.8176    17.1131   -20.5497 C.3        1  LIG1  -0.1300
     13 C8        -18.1475    17.8191   -20.2781 C.3        1  LIG1  -0.1400
     14 C9        -18.9667    17.8776   -21.5690 C.3        1  LIG1   0.1300
     15 N4        -20.2401    18.5538   -21.3090 N.pl3      1  LIG1  -0.6400
     16 C10       -20.3436    20.0066   -21.4668 C.3        1  LIG1   0.0900
     17 C11       -21.3554    17.8132   -20.9107 C.ar       1  LIG1   0.2100
     18 C12       -21.1908    16.5492   -20.3585 C.ar       1  LIG1  -0.2000
     19 C13       -22.2956    15.8200   -19.9653 C.ar       1  LIG1  -0.0700
     20 C14       -23.5649    16.3465   -20.1210 C.ar       1  LIG1  -0.1700
     21 C15       -23.7323    17.6044   -20.6704 C.ar       1  LIG1  -0.0700
     22 C16       -22.6314    18.3415   -21.0605 C.ar       1  LIG1  -0.1900
     23 H3        -13.7702    14.9393   -14.1821 H          1  LIG1   0.1100
     24 H4        -13.6784    13.0815   -14.3805 H          1  LIG1   0.1200
     25 H5        -17.2579    12.8190   -15.1895 H          1  LIG1   0.0800
     26 H6        -15.7294    12.1914   -15.8514 H          1  LIG1   0.0600
     27 H7        -16.1025    11.9841   -14.1233 H          1  LIG1   0.0700
     28 H8        -17.1324    15.1779   -13.9628 H          1  LIG1   0.1000
     29 H9        -15.6805    16.0807   -14.4577 H          1  LIG1   0.0900
     30 H10       -17.7822    15.0733   -16.2398 H          1  LIG1   0.4300
     31 H11       -17.6214    15.9520   -18.4472 H          1  LIG1   0.4300
     32 H12       -15.8064    18.0671   -18.9040 H          1  LIG1   0.0900
     33 H13       -15.0510    16.5515   -19.4523 H          1  LIG1   0.0900
     34 H14       -16.2617    17.6643   -21.3081 H          1  LIG1   0.0800
     35 H15       -17.0096    16.1004   -20.9043 H          1  LIG1   0.0800
     36 H16       -18.7034    17.2679   -19.5198 H          1  LIG1   0.0800
     37 H17       -17.9554    18.8318   -19.9234 H          1  LIG1   0.0700
     38 H18       -18.4109    18.4290   -22.3275 H          1  LIG1   0.0800
     39 H19       -19.1587    16.8650   -21.9237 H          1  LIG1   0.0800
     40 H20       -21.3588    20.3261   -21.2315 H          1  LIG1   0.0500
     41 H21       -19.6426    20.4964   -20.7909 H          1  LIG1   0.0700
     42 H22       -20.1065    20.2781   -22.4954 H          1  LIG1   0.0600
     43 H23       -20.1999    16.1372   -20.2371 H          1  LIG1   0.1200
     44 H24       -22.1683    14.8372   -19.5359 H          1  LIG1   0.1200
     45 H25       -24.4272    15.7737   -19.8134 H          1  LIG1   0.1200
     46 H26       -24.7249    18.0126   -20.7907 H          1  LIG1   0.1200
     47 H27       -22.7629    19.3240   -21.4892 H          1  LIG1   0.1200
@<TRIPOS>BOND
     1    1    2 2
     2    1   23 1
     3    1   24 1
     4    2    3 1
     5    2    4 1
     6    3   25 1
     7    3   26 1
     8    3   27 1
     9    4    5 1
    10    4   28 1
    11    4   29 1
    12    5    6 1
    13    5   30 1
    14    6    7 2
    15    6   10 1
    16    7    8 1
    17    7    9 1
    18   10   11 1
    19   10   31 1
    20   11   12 1
    21   11   32 1
    22   11   33 1
    23   12   13 1
    24   12   34 1
    25   12   35 1
    26   13   14 1
    27   13   36 1
    28   13   37 1
    29   14   15 1
    30   14   38 1
    31   14   39 1
    32   15   16 1
    33   15   17 1
    34   16   40 1
    35   16   41 1
    36   16   42 1
    37   17   22 ar
    38   17   18 ar
    39   18   19 ar
    40   18   43 1
    41   19   20 ar
    42   19   44 1
    43   20   21 ar
    44   20   45 1
    45   21   22 ar
    46   21   46 1
    47   22   47 1
##########                 Name:     ZINC000573862850
##########          Protonation:                 none
##########               SMILES:   CC1(C)CCC(O)(CN[C@@H](C2=NN=CN2)C2=CC=CC=C2)CC1
##########            Long Name:   NO_LONG_NAME
##########          FlexRecCode: 1
##########               Number:                 9012
##########   Ligand Source File: /nfs/db/export/3D/DF/ADMO/DFADMO.xss.db2.gz
##########                 Rank:                    1
##########               Setnum:                    8
##########             Matchnum:                    1
##########                Cloud:                    1
##########        Electrostatic:           -33.610664
##########                 Gist:             0.000000
##########        Van der Waals:           -28.834795
##########  Ligand Polar Desolv:            11.383877
########## Ligand Apolar Desolv:            -3.941842
##########      Internal Energy:             0.000000
##########      Receptor Energy:             0.000000
########## Receptor Desolvation:             0.000000
########## Receptor Hydrophobic:             0.000000
##########         Total Energy:           -55.003422
##########        Ligand Charge:             1.000000
##########            Arbitrary:    +999.9990
##########        Ligand Energy:             0.000000

@<TRIPOS>MOLECULE
 ZINC000573862850      none
   50    52     0     0     0



@<TRIPOS>ATOM
      1 C1        -15.8227    20.6777   -23.9946 C.3        1  LIG1  -0.1500
      2 C2        -16.9279    21.6253   -23.5238 C.3        1  LIG1  -0.0700
      3 C3        -16.7684    22.9793   -24.2182 C.3        1  LIG1  -0.1500
      4 C4        -18.2932    21.0303   -23.8739 C.3        1  LIG1  -0.1100
      5 C5        -18.4526    19.6763   -23.1796 C.3        1  LIG1  -0.1100
      6 C6        -18.3517    19.8649   -21.6647 C.3        1  LIG1   0.1200
      7 O1        -19.3839    20.7501   -21.2251 O.3        1  LIG1  -0.5300
      8 C7        -18.5112    18.5109   -20.9703 C.3        1  LIG1  -0.0400
      9 N1        -18.4144    18.6920   -19.5158 N.4        1  LIG1  -0.5000
     10 H1        -17.5139    19.0844   -19.2849 H          1  LIG1   0.4400
     11 H2        -19.1430    19.3171   -19.2054 H          1  LIG1   0.4300
     12 C8        -18.5675    17.3920   -18.8492 C.3        1  LIG1   0.1900
     13 H3        -18.0362    16.6280   -19.4167 H          1  LIG1   0.1600
     14 C9        -17.9968    17.4712   -17.4566 C.2        1  LIG1   0.1200
     15 N2        -17.4470    18.5182   -16.9044 N.2        1  LIG1  -0.2700
     16 N3        -17.0713    18.2298   -15.7088 N.2        1  LIG1  -0.2700
     17 C10       -17.3646    16.9859   -15.4440 C.2        1  LIG1   0.2000
     18 N4        -17.9648    16.4703   -16.5439 N.pl3      1  LIG1  -0.5600
     19 C11       -20.0297    17.0355   -18.7733 C.ar       1  LIG1  -0.1600
     20 C12       -20.7814    17.4292   -17.6820 C.ar       1  LIG1  -0.1100
     21 C13       -22.1227    17.1022   -17.6124 C.ar       1  LIG1  -0.1000
     22 C14       -22.7125    16.3818   -18.6343 C.ar       1  LIG1  -0.0800
     23 C15       -21.9609    15.9888   -19.7260 C.ar       1  LIG1  -0.1100
     24 C16       -20.6207    16.3196   -19.7976 C.ar       1  LIG1  -0.0800
     25 C17       -16.9863    20.4599   -21.3145 C.3        1  LIG1  -0.1600
     26 C18       -16.8270    21.8140   -22.0089 C.3        1  LIG1  -0.1000
     27 H4        -15.8946    20.5432   -25.0739 H          1  LIG1   0.0500
     28 H5        -14.8500    21.1015   -23.7451 H          1  LIG1   0.0600
     29 H6        -15.9363    19.7129   -23.5000 H          1  LIG1   0.0600
     30 H7        -17.5556    23.6546   -23.8829 H          1  LIG1   0.0600
     31 H8        -15.7956    23.4032   -23.9686 H          1  LIG1   0.0600
     32 H9        -16.8401    22.8450   -25.2975 H          1  LIG1   0.0600
     33 H10       -19.0806    21.7055   -23.5387 H          1  LIG1   0.0800
     34 H11       -18.3651    20.8960   -24.9531 H          1  LIG1   0.0700
     35 H12       -19.4254    19.2523   -23.4290 H          1  LIG1   0.0800
     36 H13       -17.6653    19.0011   -23.5149 H          1  LIG1   0.0900
     37 H14       -19.3806    20.9158   -20.2723 H          1  LIG1   0.3700
     38 H15       -19.4839    18.0870   -21.2197 H          1  LIG1   0.1400
     39 H16       -17.7239    17.8357   -21.3056 H          1  LIG1   0.1400
     40 H17       -17.1687    16.4652   -14.5183 H          1  LIG1   0.2400
     41 H18       -18.2986    15.5667   -16.6568 H          1  LIG1   0.4400
     42 H19       -20.3207    17.9920   -16.8837 H          1  LIG1   0.1200
     43 H20       -22.7098    17.4091   -16.7596 H          1  LIG1   0.1400
     44 H21       -23.7602    16.1256   -18.5796 H          1  LIG1   0.1400
     45 H22       -22.4216    15.4258   -20.5242 H          1  LIG1   0.1400
     46 H23       -20.0335    16.0126   -20.6506 H          1  LIG1   0.1300
     47 H24       -16.9145    20.5944   -20.2354 H          1  LIG1   0.0600
     48 H25       -16.1990    19.7847   -21.6498 H          1  LIG1   0.1000
     49 H26       -15.8543    22.2379   -21.7595 H          1  LIG1   0.0700
     50 H27       -17.6142    22.4892   -21.6737 H          1  LIG1   0.0700
@<TRIPOS>BOND
     1    1    2 1
     2    1   27 1
     3    1   28 1
     4    1   29 1
     5    2   26 1
     6    2    3 1
     7    2    4 1
     8    3   30 1
     9    3   31 1
    10    3   32 1
    11    4    5 1
    12    4   33 1
    13    4   34 1
    14    5    6 1
    15    5   35 1
    16    5   36 1
    17    6    7 1
    18    6    8 1
    19    6   25 1
    20    7   37 1
    21    8    9 1
    22    8   38 1
    23    8   39 1
    24    9   10 1
    25    9   11 1
    26    9   12 1
    27   12   13 1
    28   12   14 1
    29   12   19 1
    30   14   18 1
    31   14   15 2
    32   15   16 1
    33   16   17 2
    34   17   18 1
    35   17   40 1
    36   18   41 1
    37   19   24 ar
    38   19   20 ar
    39   20   21 ar
    40   20   42 1
    41   21   22 ar
    42   21   43 1
    43   22   23 ar
    44   22   44 1
    45   23   24 ar
    46   23   45 1
    47   24   46 1
    48   25   26 1
    49   25   47 1
    50   25   48 1
    51   26   49 1
    52   26   50 1
##########                 Name:     ZINC000486647484
##########          Protonation:                 none
##########               SMILES:   O=C(NC1=C2C=CC=C(Cl)C2=NN1)C(=O)NC1=CC=C(Cl)C(F)=C1
##########            Long Name:   NO_LONG_NAME
##########          FlexRecCode: 1
##########               Number:                16950
##########   Ligand Source File: /nfs/db/export/3D/FG/ADMN/FGADMN.xdv.db2.gz
##########                 Rank:                    1
##########               Setnum:                   18
##########             Matchnum:                    1
##########                Cloud:                    1
##########        Electrostatic:           -20.332340
##########                 Gist:             0.000000
##########        Van der Waals:           -36.906082
##########  Ligand Polar Desolv:             6.860829
########## Ligand Apolar Desolv:            -4.623137
##########      Internal Energy:             0.000000
##########      Receptor Energy:             0.000000
########## Receptor Desolvation:             0.000000
########## Receptor Hydrophobic:             0.000000
##########         Total Energy:           -55.000729
##########        Ligand Charge:             0.000000
##########            Arbitrary:    +999.9990
##########        Ligand Energy:             0.000000

@<TRIPOS>MOLECULE
 ZINC000486647484      none
   33    35     0     0     0



@<TRIPOS>ATOM
      1 O1        -17.5425    18.5298   -17.7189 O.2        1  LIG1  -0.5000
      2 C1        -17.8644    17.5039   -17.1546 C.2        1  LIG1   0.5200
      3 N1        -19.0448    16.9195   -17.4400 N.am       1  LIG1  -0.6000
      4 C2        -19.8913    17.4894   -18.3779 C.2        1  LIG1   0.3400
      5 C3        -21.1364    17.0009   -18.7655 C.ar       1  LIG1  -0.2100
      6 C4        -21.9204    15.8873   -18.4085 C.ar       1  LIG1  -0.0300
      7 C5        -23.1287    15.7007   -18.9997 C.ar       1  LIG1  -0.1500
      8 C6        -23.6208    16.5872   -19.9594 C.ar       1  LIG1  -0.0600
      9 C7        -22.9168    17.6809   -20.3498 C.ar       1  LIG1  -0.0300
     10 Cl1       -23.5670    18.7570   -21.5468 Cl         1  LIG1  -0.0500
     11 C8        -21.6519    17.9369   -19.7756 C.ar       1  LIG1   0.1300
     12 N2        -20.7386    18.8794   -19.9266 N.2        1  LIG1  -0.2700
     13 N3        -19.6609    18.6170   -19.0734 N.pl3      1  LIG1  -0.4100
     14 C9        -16.9509    16.8875   -16.1501 C.2        1  LIG1   0.5200
     15 O2        -16.6285    17.5109   -15.1594 O.2        1  LIG1  -0.4800
     16 N4        -16.4832    15.6381   -16.3419 N.am       1  LIG1  -0.6400
     17 C10       -15.6270    15.0602   -15.4005 C.ar       1  LIG1   0.1700
     18 C11       -14.7795    15.8619   -14.6464 C.ar       1  LIG1  -0.1300
     19 C12       -13.9339    15.2893   -13.7163 C.ar       1  LIG1  -0.0600
     20 C13       -13.9296    13.9180   -13.5345 C.ar       1  LIG1  -0.0800
     21 Cl2       -12.8653    13.2022   -12.3647 Cl         1  LIG1  -0.0400
     22 C14       -14.7742    13.1145   -14.2849 C.ar       1  LIG1   0.1300
     23 F1        -14.7685    11.7756   -14.1052 F          1  LIG1  -0.1200
     24 C15       -15.6262    13.6837   -15.2134 C.ar       1  LIG1  -0.1400
     25 H1        -19.3018    16.1000   -16.9894 H          1  LIG1   0.4400
     26 H2        -21.5629    15.1857   -17.6694 H          1  LIG1   0.1300
     27 H3        -23.7242    14.8441   -18.7206 H          1  LIG1   0.1400
     28 H4        -24.5869    16.3981   -20.4034 H          1  LIG1   0.1400
     29 H5        -18.8637    19.1643   -18.9986 H          1  LIG1   0.4600
     30 H6        -16.7408    15.1399   -17.1333 H          1  LIG1   0.4300
     31 H7        -14.7816    16.9327   -14.7875 H          1  LIG1   0.1500
     32 H8        -13.2750    15.9130   -13.1304 H          1  LIG1   0.1500
     33 H9        -16.2846    13.0583   -15.7979 H          1  LIG1   0.1600
@<TRIPOS>BOND
     1    1    2 2
     2    2    3 am
     3    2   14 1
     4    3    4 1
     5    3   25 1
     6    4   13 1
     7    4    5 2
     8    5   11 ar
     9    5    6 ar
    10    6    7 ar
    11    6   26 1
    12    7    8 ar
    13    7   27 1
    14    8    9 ar
    15    8   28 1
    16    9   10 1
    17    9   11 ar
    18   11   12 2
    19   12   13 1
    20   13   29 1
    21   14   15 2
    22   14   16 am
    23   16   17 1
    24   16   30 1
    25   17   24 ar
    26   17   18 ar
    27   18   19 ar
    28   18   31 1
    29   19   20 ar
    30   19   32 1
    31   20   21 1
    32   20   22 ar
    33   22   23 1
    34   22   24 ar
    35   24   33 1
##########                 Name:     ZINC000355274455
##########          Protonation:                 none
##########               SMILES:   OC1=CC=CN=C1C[NH2+]CC1=CC=NN1C1=CC=C(F)C=C1
##########            Long Name:   NO_LONG_NAME
##########          FlexRecCode: 1
##########               Number:                 8894
##########   Ligand Source File: /nfs/db/export/3D/CE/ADRO/CEADRO.xboi.db2.gz
##########                 Rank:                    1
##########               Setnum:                  383
##########             Matchnum:                    1
##########                Cloud:                    1
##########        Electrostatic:           -38.845200
##########                 Gist:             0.000000
##########        Van der Waals:           -30.548771
##########  Ligand Polar Desolv:            16.750298
########## Ligand Apolar Desolv:            -2.356517
##########      Internal Energy:             0.000000
##########      Receptor Energy:             0.000000
########## Receptor Desolvation:             0.000000
########## Receptor Hydrophobic:             0.000000
##########         Total Energy:           -55.000187
##########        Ligand Charge:             1.000000
##########            Arbitrary:    +999.9990
##########        Ligand Energy:             0.000000

@<TRIPOS>MOLECULE
 ZINC000355274455      none
   38    40     0     0     0



@<TRIPOS>ATOM
      1 O1        -16.6013    17.5632   -16.5621 O.3        1  LIG1  -0.4800
      2 C1        -16.1767    17.9989   -17.7776 C.ar       1  LIG1   0.0900
      3 C2        -15.5035    19.2102   -17.8968 C.ar       1  LIG1  -0.1000
      4 C3        -15.0898    19.6122   -19.1569 C.ar       1  LIG1  -0.1100
      5 C4        -15.3575    18.8033   -20.2452 C.ar       1  LIG1   0.1000
      6 N1        -15.9983    17.6601   -20.0976 N.ar       1  LIG1  -0.4500
      7 C5        -16.4039    17.2392   -18.9161 C.ar       1  LIG1   0.0200
      8 C6        -17.1321    15.9248   -18.8025 C.3        1  LIG1   0.0600
      9 N2        -18.5753    16.1493   -18.9597 N.4        1  LIG1  -0.5100
     10 H1        -19.0629    15.2692   -18.8835 H          1  LIG1   0.4300
     11 H2        -18.8987    16.7763   -18.2384 H          1  LIG1   0.4300
     12 C7        -18.8379    16.7422   -20.2778 C.3        1  LIG1   0.0600
     13 C8        -20.3184    16.9725   -20.4392 C.2        1  LIG1  -0.0100
     14 C9        -21.3017    16.1008   -20.1156 C.2        1  LIG1  -0.2000
     15 C10       -22.5277    16.7015   -20.4215 C.2        1  LIG1   0.0600
     16 N3        -22.2899    17.8916   -20.9115 N.2        1  LIG1  -0.2400
     17 N4        -20.9031    18.0894   -20.9278 N.pl3      1  LIG1  -0.3100
     18 C11       -20.2386    19.2391   -21.3791 C.ar       1  LIG1   0.1000
     19 C12       -20.8451    20.4826   -21.2644 C.ar       1  LIG1  -0.1100
     20 C13       -20.1892    21.6135   -21.7095 C.ar       1  LIG1  -0.1300
     21 C14       -18.9276    21.5080   -22.2697 C.ar       1  LIG1   0.1200
     22 F1        -18.2875    22.6154   -22.7045 F          1  LIG1  -0.1200
     23 C15       -18.3207    20.2681   -22.3853 C.ar       1  LIG1  -0.1300
     24 C16       -18.9709    19.1357   -21.9358 C.ar       1  LIG1  -0.0700
     25 H3        -17.0543    16.7092   -16.5866 H          1  LIG1   0.4000
     26 H4        -15.3083    19.8225   -17.0290 H          1  LIG1   0.1600
     27 H5        -14.5648    20.5471   -19.2871 H          1  LIG1   0.1600
     28 H6        -15.0378    19.1116   -21.2296 H          1  LIG1   0.1800
     29 H7        -16.7828    15.2473   -19.5817 H          1  LIG1   0.1600
     30 H8        -16.9374    15.4849   -17.8243 H          1  LIG1   0.1500
     31 H9        -18.3111    17.6929   -20.3600 H          1  LIG1   0.1600
     32 H10       -18.4886    16.0647   -21.0571 H          1  LIG1   0.1500
     33 H11       -21.1643    15.1153   -19.6957 H          1  LIG1   0.1700
     34 H12       -23.5025    16.2590   -20.2786 H          1  LIG1   0.2000
     35 H13       -21.8295    20.5654   -20.8279 H          1  LIG1   0.1400
     36 H14       -20.6608    22.5811   -21.6205 H          1  LIG1   0.1600
     37 H15       -17.3367    20.1874   -22.8231 H          1  LIG1   0.1600
     38 H16       -18.4974    18.1692   -22.0254 H          1  LIG1   0.1500
@<TRIPOS>BOND
     1    1    2 1
     2    1   25 1
     3    2    7 ar
     4    2    3 ar
     5    3    4 ar
     6    3   26 1
     7    4    5 ar
     8    4   27 1
     9    5    6 ar
    10    5   28 1
    11    6    7 ar
    12    7    8 1
    13    8    9 1
    14    8   29 1
    15    8   30 1
    16    9   10 1
    17    9   11 1
    18    9   12 1
    19   12   13 1
    20   12   31 1
    21   12   32 1
    22   13   17 1
    23   13   14 2
    24   14   15 1
    25   14   33 1
    26   15   16 2
    27   15   34 1
    28   16   17 1
    29   17   18 1
    30   18   24 ar
    31   18   19 ar
    32   19   20 ar
    33   19   35 1
    34   20   21 ar
    35   20   36 1
    36   21   22 1
    37   21   23 ar
    38   23   24 ar
    39   23   37 1
    40   24   38 1
##########                 Name:     ZINC000595265041
##########          Protonation:                 none
##########               SMILES:   O=C(NCCC1=CC=C(Cl)C=C1[N+](=O)[O-])NCC12CC(C1)C[NH2+]2
##########            Long Name:   NO_LONG_NAME
##########          FlexRecCode: 1
##########               Number:                15946
##########   Ligand Source File: /nfs/db/export/3D/ED/BDRO/EDBDRO.xcw.db2.gz
##########                 Rank:                    1
##########               Setnum:                  117
##########             Matchnum:                    1
##########                Cloud:                    1
##########        Electrostatic:           -35.931454
##########                 Gist:             0.000000
##########        Van der Waals:           -34.020622
##########  Ligand Polar Desolv:            19.300783
########## Ligand Apolar Desolv:            -4.351044
##########      Internal Energy:             0.000000
##########      Receptor Energy:             0.000000
########## Receptor Desolvation:             0.000000
########## Receptor Hydrophobic:             0.000000
##########         Total Energy:           -55.002335
##########        Ligand Charge:             1.000000
##########            Arbitrary:    +999.9990
##########        Ligand Energy:             0.000000

@<TRIPOS>MOLECULE
 ZINC000595265041      none
   43    45     0     0     0



@<TRIPOS>ATOM
      1 O1        -16.7998    18.2214   -19.1294 O.2        1  LIG1  -0.5700
      2 C1        -16.8057    17.1706   -18.5178 C.2        1  LIG1   0.7100
      3 N1        -16.0525    17.0322   -17.4087 N.am       1  LIG1  -0.7300
      4 C2        -16.0643    15.7681   -16.6686 C.3        1  LIG1   0.1500
      5 C3        -15.1309    15.8754   -15.4609 C.3        1  LIG1  -0.1100
      6 C4        -15.1429    14.5750   -14.6995 C.ar       1  LIG1  -0.0200
      7 C5        -15.9219    13.5225   -15.1420 C.ar       1  LIG1  -0.1000
      8 C6        -15.9330    12.3292   -14.4442 C.ar       1  LIG1  -0.0500
      9 C7        -15.1641    12.1886   -13.3029 C.ar       1  LIG1  -0.0400
     10 Cl1       -15.1772    10.6902   -12.4264 Cl         1  LIG1  -0.0300
     11 C8        -14.3845    13.2426   -12.8604 C.ar       1  LIG1  -0.0400
     12 C9        -14.3701    14.4332   -13.5617 C.ar       1  LIG1  -0.0300
     13 N2        -13.5357    15.5607   -13.0888 N.pl3      1  LIG1   0.0300
     14 O2        -13.5299    16.6130   -13.7019 O.2        1  LIG1  -0.1500
     15 O3        -12.8549    15.4360   -12.0866 O.2        1  LIG1  -0.1600
     16 N3        -17.5696    16.1461   -18.9458 N.am       1  LIG1  -0.7600
     17 C10       -18.3884    16.2966   -20.1513 C.3        1  LIG1   0.1600
     18 C11       -19.7697    16.8303   -19.7663 C.3        1  LIG1  -0.0100
     19 C12       -20.9714    16.5894   -20.7265 C.3        1  LIG1  -0.1100
     20 C13       -21.7750    16.9105   -19.4286 C.3        1  LIG1  -0.1400
     21 C14       -20.6701    16.0207   -18.8005 C.3        1  LIG1  -0.1300
     22 C15       -21.3303    18.3434   -18.9750 C.3        1  LIG1   0.0200
     23 N4        -19.8490    18.2307   -19.2285 N.4        1  LIG1  -0.5200
     24 H1        -19.3250    18.3347   -18.3725 H          1  LIG1   0.4400
     25 H2        -19.5472    18.8993   -19.9212 H          1  LIG1   0.4300
     26 H3        -15.5027    17.7695   -17.1007 H          1  LIG1   0.4000
     27 H4        -17.0774    15.5564   -16.3268 H          1  LIG1   0.0700
     28 H5        -15.7248    14.9625   -17.3197 H          1  LIG1   0.0700
     29 H6        -14.1176    16.0870   -15.8026 H          1  LIG1   0.1200
     30 H7        -15.4703    16.6809   -14.8098 H          1  LIG1   0.0900
     31 H8        -16.5225    13.6326   -16.0329 H          1  LIG1   0.1600
     32 H9        -16.5421    11.5071   -14.7898 H          1  LIG1   0.1600
     33 H10       -13.7843    13.1335   -11.9692 H          1  LIG1   0.1700
     34 H11       -17.5775    15.3091   -18.4556 H          1  LIG1   0.3900
     35 H12       -17.9056    16.9966   -20.8333 H          1  LIG1   0.1100
     36 H13       -18.4963    15.3285   -20.6405 H          1  LIG1   0.1000
     37 H14       -21.0743    17.3322   -21.5177 H          1  LIG1   0.1000
     38 H15       -21.0711    15.5625   -21.0780 H          1  LIG1   0.1400
     39 H16       -22.8271    16.6356   -19.3537 H          1  LIG1   0.1600
     40 H17       -20.7526    14.9612   -19.0424 H          1  LIG1   0.1400
     41 H18       -20.4838    16.2117   -17.7437 H          1  LIG1   0.1000
     42 H19       -21.7888    19.1169   -19.5912 H          1  LIG1   0.1400
     43 H20       -21.5344    18.5077   -17.9168 H          1  LIG1   0.1500
@<TRIPOS>BOND
     1    1    2 2
     2    2    3 am
     3    2   16 am
     4    3    4 1
     5    3   26 1
     6    4    5 1
     7    4   27 1
     8    4   28 1
     9    5    6 1
    10    5   29 1
    11    5   30 1
    12    6   12 ar
    13    6    7 ar
    14    7    8 ar
    15    7   31 1
    16    8    9 ar
    17    8   32 1
    18    9   10 1
    19    9   11 ar
    20   11   12 ar
    21   11   33 1
    22   12   13 1
    23   13   14 2
    24   13   15 2
    25   16   17 1
    26   16   34 1
    27   17   18 1
    28   17   35 1
    29   17   36 1
    30   18   21 1
    31   18   23 1
    32   18   19 1
    33   19   20 1
    34   19   37 1
    35   19   38 1
    36   20   21 1
    37   20   22 1
    38   20   39 1
    39   21   40 1
    40   21   41 1
    41   22   23 1
    42   22   42 1
    43   22   43 1
    44   23   24 1
    45   23   25 1
##########                 Name:     ZINC000341983064
##########          Protonation:                 none
##########               SMILES:   N#CC1=CC=C(C[N@@H+]2CC[C@@]3(C2)CCCOC3)C(OC(F)F)=C1
##########            Long Name:   NO_LONG_NAME
##########          FlexRecCode: 1
##########               Number:                 3365
##########   Ligand Source File: /nfs/db/export/3D/DG/EDRO/DGEDRO.xbt.db2.gz
##########                 Rank:                    1
##########               Setnum:                   58
##########             Matchnum:                    1
##########                Cloud:                    1
##########        Electrostatic:           -41.528656
##########                 Gist:             0.000000
##########        Van der Waals:           -29.096195
##########  Ligand Polar Desolv:            20.112337
########## Ligand Apolar Desolv:            -4.489563
##########      Internal Energy:             0.000000
##########      Receptor Energy:             0.000000
########## Receptor Desolvation:             0.000000
########## Receptor Hydrophobic:             0.000000
##########         Total Energy:           -55.002075
##########        Ligand Charge:             1.000000
##########            Arbitrary:    +999.9990
##########        Ligand Energy:             0.000000

@<TRIPOS>MOLECULE
 ZINC000341983064      none
   44    46     0     0     0



@<TRIPOS>ATOM
      1 N1        -12.3390    15.0628   -14.3609 N.1        1  LIG1  -0.3600
      2 C1        -13.3700    15.4333   -14.6606 C.1        1  LIG1   0.2200
      3 C2        -14.6696    15.9007   -15.0394 C.ar       1  LIG1   0.0600
      4 C3        -15.8022    15.1404   -14.7389 C.ar       1  LIG1  -0.0900
      5 C4        -17.0532    15.5941   -15.1043 C.ar       1  LIG1  -0.0500
      6 C5        -17.1899    16.7996   -15.7670 C.ar       1  LIG1  -0.1500
      7 C6        -18.5596    17.2876   -16.1629 C.3        1  LIG1   0.0600
      8 N2        -18.8868    16.7916   -17.5063 N.4        1  LIG1  -0.4000
      9 H1        -18.8810    15.7827   -17.5209 H          1  LIG1   0.4300
     10 C7        -17.9293    17.3310   -18.5066 C.3        1  LIG1   0.0000
     11 C8        -18.6764    17.2298   -19.8552 C.3        1  LIG1  -0.1400
     12 C9        -20.1679    17.2203   -19.4809 C.3        1  LIG1  -0.1100
     13 C10       -20.2097    17.3100   -17.9437 C.3        1  LIG1   0.0100
     14 C11       -20.8742    18.4247   -20.0974 C.3        1  LIG1  -0.1100
     15 C12       -22.3668    18.3591   -19.7551 C.3        1  LIG1  -0.1600
     16 C13       -22.9330    17.0214   -20.2388 C.3        1  LIG1   0.0500
     17 O1        -22.2145    15.9490   -19.6259 O.3        1  LIG1  -0.3700
     18 C14       -20.8211    15.9230   -19.9468 C.3        1  LIG1   0.0600
     19 C15       -16.0698    17.5628   -16.0690 C.ar       1  LIG1   0.1300
     20 O2        -16.2105    18.7473   -16.7203 O.3        1  LIG1  -0.3300
     21 C16       -15.1307    19.1574   -17.5616 C.3        1  LIG1   0.4100
     22 F1        -15.6288    19.9283   -18.6174 F          1  LIG1  -0.1900
     23 F2        -14.2223    19.9176   -16.8172 F          1  LIG1  -0.1900
     24 C17       -14.8102    17.1201   -15.7026 C.ar       1  LIG1  -0.1500
     25 H2        -15.6989    14.1979   -14.2219 H          1  LIG1   0.1500
     26 H3        -17.9283    15.0053   -14.8719 H          1  LIG1   0.1600
     27 H4        -19.2969    16.9185   -15.4497 H          1  LIG1   0.1400
     28 H5        -18.5703    18.3775   -16.1653 H          1  LIG1   0.1400
     29 H6        -17.6900    18.3703   -18.2817 H          1  LIG1   0.1400
     30 H7        -17.0221    16.7273   -18.5284 H          1  LIG1   0.1300
     31 H8        -18.4479    18.0926   -20.4808 H          1  LIG1   0.1200
     32 H9        -18.4084    16.3065   -20.3688 H          1  LIG1   0.1000
     33 H10       -21.0144    16.6903   -17.5481 H          1  LIG1   0.1400
     34 H11       -20.3342    18.3453   -17.6262 H          1  LIG1   0.1400
     35 H12       -20.4476    19.3431   -19.6941 H          1  LIG1   0.0800
     36 H13       -20.7472    18.4070   -21.1799 H          1  LIG1   0.0900
     37 H14       -22.4972    18.4414   -18.6761 H          1  LIG1   0.0700
     38 H15       -22.8905    19.1769   -20.2502 H          1  LIG1   0.0900
     39 H16       -23.9868    16.9540   -19.9680 H          1  LIG1   0.1100
     40 H17       -22.8316    16.9544   -21.3219 H          1  LIG1   0.0600
     41 H18       -20.6982    15.8212   -21.0251 H          1  LIG1   0.0700
     42 H19       -20.3486    15.0781   -19.4458 H          1  LIG1   0.1000
     43 H20       -14.6265    18.2772   -17.9608 H          1  LIG1   0.1900
     44 H21       -13.9383    17.7129   -15.9366 H          1  LIG1   0.1500
@<TRIPOS>BOND
     1    1    2 3
     2    2    3 1
     3    3   24 ar
     4    3    4 ar
     5    4    5 ar
     6    4   25 1
     7    5    6 ar
     8    5   26 1
     9    6    7 1
    10    6   19 ar
    11    7    8 1
    12    7   27 1
    13    7   28 1
    14    8    9 1
    15    8   13 1
    16    8   10 1
    17   10   11 1
    18   10   29 1
    19   10   30 1
    20   11   12 1
    21   11   31 1
    22   11   32 1
    23   12   18 1
    24   12   13 1
    25   12   14 1
    26   13   33 1
    27   13   34 1
    28   14   15 1
    29   14   35 1
    30   14   36 1
    31   15   16 1
    32   15   37 1
    33   15   38 1
    34   16   17 1
    35   16   39 1
    36   16   40 1
    37   17   18 1
    38   18   41 1
    39   18   42 1
    40   19   20 1
    41   19   24 ar
    42   20   21 1
    43   21   22 1
    44   21   23 1
    45   21   43 1
    46   24   44 1
##########                 Name:     ZINC000412996356
##########          Protonation:                 none
##########               SMILES:   COC(=O)C1=CC=C(C2=NN(C[C@@H]3CCCC[N@@H+]3C(C)C)N=N2)C=C1
##########            Long Name:   NO_LONG_NAME
##########          FlexRecCode: 1
##########               Number:                10212
##########   Ligand Source File: /nfs/db/export/3D/EE/ADRO/EEADRO.xapx.db2.gz
##########                 Rank:                    1
##########               Setnum:                   34
##########             Matchnum:                    1
##########                Cloud:                    1
##########        Electrostatic:           -39.834259
##########                 Gist:             0.000000
##########        Van der Waals:           -26.279413
##########  Ligand Polar Desolv:            15.015361
########## Ligand Apolar Desolv:            -3.901473
##########      Internal Energy:             0.000000
##########      Receptor Energy:             0.000000
########## Receptor Desolvation:             0.000000
########## Receptor Hydrophobic:             0.000000
##########         Total Energy:           -54.999783
##########        Ligand Charge:             1.000000
##########            Arbitrary:    +999.9990
##########        Ligand Energy:             0.000000

@<TRIPOS>MOLECULE
 ZINC000412996356      none
   51    53     0     0     0



@<TRIPOS>ATOM
      1 C1        -14.2166    24.4693   -28.0116 C.3        1  LIG1   0.0400
      2 O1        -14.4639    23.4961   -26.9628 O.3        1  LIG1  -0.3500
      3 C2        -14.7974    23.9762   -25.7489 C.2        1  LIG1   0.5000
      4 O2        -14.8793    25.1753   -25.5716 O.2        1  LIG1  -0.5000
      5 C3        -15.0631    23.0456   -24.6345 C.ar       1  LIG1  -0.1000
      6 C4        -16.3575    22.5656   -24.4176 C.ar       1  LIG1  -0.0600
      7 C5        -16.6038    21.6976   -23.3779 C.ar       1  LIG1  -0.0900
      8 C6        -15.5623    21.2977   -22.5407 C.ar       1  LIG1   0.0000
      9 C7        -15.8295    20.3624   -21.4207 C.2        1  LIG1   0.2300
     10 N1        -16.9995    20.1096   -20.8675 N.2        1  LIG1  -0.2900
     11 N2        -16.8139    19.2447   -19.9304 N.pl3      1  LIG1  -0.1500
     12 C8        -17.8610    18.6931   -19.0669 C.3        1  LIG1   0.1100
     13 C9        -17.6810    17.1782   -18.9509 C.3        1  LIG1   0.0100
     14 H1        -16.6198    16.9442   -18.8675 H          1  LIG1   0.1500
     15 C10       -18.2558    16.5001   -20.1964 C.3        1  LIG1  -0.1400
     16 C11       -19.7468    16.8312   -20.3091 C.3        1  LIG1  -0.1400
     17 C12       -20.4566    16.3873   -19.0268 C.3        1  LIG1  -0.1500
     18 C13       -19.8002    17.0696   -17.8246 C.3        1  LIG1  -0.0200
     19 N3        -18.3838    16.6925   -17.7572 N.4        1  LIG1  -0.3700
     20 H2        -18.3062    15.6877   -17.7081 H          1  LIG1   0.4300
     21 C14       -17.7764    17.2882   -16.5598 C.3        1  LIG1   0.0100
     22 C15       -18.1362    16.4473   -15.3332 C.3        1  LIG1  -0.1800
     23 C16       -16.2557    17.3258   -16.7241 C.3        1  LIG1  -0.1900
     24 N4        -15.5643    18.9412   -19.8720 N.2        1  LIG1  -0.0500
     25 N5        -14.9292    19.6049   -20.7774 N.2        1  LIG1  -0.2500
     26 C17       -14.2699    21.7759   -22.7559 C.ar       1  LIG1  -0.0900
     27 C18       -14.0194    22.6390   -23.7987 C.ar       1  LIG1  -0.0600
     28 H3        -13.9585    23.9506   -28.9349 H          1  LIG1   0.1100
     29 H4        -15.1131    25.0686   -28.1699 H          1  LIG1   0.0700
     30 H5        -13.3925    25.1191   -27.7173 H          1  LIG1   0.0700
     31 H6        -17.1643    22.8755   -25.0653 H          1  LIG1   0.1500
     32 H7        -17.6040    21.3265   -23.2099 H          1  LIG1   0.1500
     33 H8        -17.7908    19.1442   -18.0770 H          1  LIG1   0.1400
     34 H9        -18.8386    18.9109   -19.4968 H          1  LIG1   0.1400
     35 H10       -17.7344    16.8632   -21.0820 H          1  LIG1   0.1100
     36 H11       -18.1278    15.4206   -20.1149 H          1  LIG1   0.1000
     37 H12       -19.8724    17.9057   -20.4420 H          1  LIG1   0.0900
     38 H13       -20.1736    16.3048   -21.1628 H          1  LIG1   0.1000
     39 H14       -21.5081    16.6698   -19.0763 H          1  LIG1   0.1200
     40 H15       -20.3742    15.3055   -18.9210 H          1  LIG1   0.0900
     41 H16       -19.8833    18.1512   -17.9313 H          1  LIG1   0.1300
     42 H17       -20.3032    16.7558   -16.9099 H          1  LIG1   0.1400
     43 H18       -18.1527    18.3027   -16.4279 H          1  LIG1   0.1400
     44 H19       -17.6855    16.8893   -14.4447 H          1  LIG1   0.0800
     45 H20       -19.2196    16.4206   -15.2162 H          1  LIG1   0.1100
     46 H21       -17.7600    15.4328   -15.4652 H          1  LIG1   0.0800
     47 H22       -15.8051    17.7677   -15.8356 H          1  LIG1   0.0800
     48 H23       -15.8794    16.3112   -16.8561 H          1  LIG1   0.1100
     49 H24       -15.9994    17.9249   -17.5979 H          1  LIG1   0.0900
     50 H25       -13.4646    21.4656   -22.1066 H          1  LIG1   0.1400
     51 H26       -13.0185    23.0090   -23.9653 H          1  LIG1   0.1500
@<TRIPOS>BOND
     1    1    2 1
     2    1   28 1
     3    1   29 1
     4    1   30 1
     5    2    3 1
     6    3    4 2
     7    3    5 1
     8    5   27 ar
     9    5    6 ar
    10    6    7 ar
    11    6   31 1
    12    7    8 ar
    13    7   32 1
    14    8    9 1
    15    8   26 ar
    16    9   25 1
    17    9   10 2
    18   10   11 1
    19   11   12 1
    20   11   24 1
    21   12   13 1
    22   12   33 1
    23   12   34 1
    24   13   14 1
    25   13   19 1
    26   13   15 1
    27   15   16 1
    28   15   35 1
    29   15   36 1
    30   16   17 1
    31   16   37 1
    32   16   38 1
    33   17   18 1
    34   17   39 1
    35   17   40 1
    36   18   19 1
    37   18   41 1
    38   18   42 1
    39   19   20 1
    40   19   21 1
    41   21   22 1
    42   21   23 1
    43   21   43 1
    44   22   44 1
    45   22   45 1
    46   22   46 1
    47   23   47 1
    48   23   48 1
    49   23   49 1
    50   24   25 2
    51   26   27 ar
    52   26   50 1
    53   27   51 1
##########                 Name:     ZINC000413345277
##########          Protonation:                 none
##########               SMILES:   CC1=CC=C2C(C)=CC(NCCC3=CN=C(C)C=N3)=[NH+]C2=C1
##########            Long Name:   NO_LONG_NAME
##########          FlexRecCode: 1
##########               Number:                 6608
##########   Ligand Source File: /nfs/db/export/3D/CG/ADMO/CGADMO.xaoz.db2.gz
##########                 Rank:                    1
##########               Setnum:                   42
##########             Matchnum:                    1
##########                Cloud:                    1
##########        Electrostatic:           -32.228363
##########                 Gist:             0.000000
##########        Van der Waals:           -29.623146
##########  Ligand Polar Desolv:            11.210692
########## Ligand Apolar Desolv:            -4.361248
##########      Internal Energy:             0.000000
##########      Receptor Energy:             0.000000
########## Receptor Desolvation:             0.000000
########## Receptor Hydrophobic:             0.000000
##########         Total Energy:           -55.002064
##########        Ligand Charge:             1.000000
##########            Arbitrary:    +999.9990
##########        Ligand Energy:             0.000000

@<TRIPOS>MOLECULE
 ZINC000413345277      none
   43    45     0     0     0



@<TRIPOS>ATOM
      1 C1        -15.1629    11.2109   -13.0134 C.3        1  LIG1  -0.1400
      2 C2        -15.0170    12.6129   -13.5468 C.ar       1  LIG1   0.0100
      3 C3        -14.1381    13.4951   -12.9239 C.ar       1  LIG1  -0.1200
      4 C4        -13.9844    14.7687   -13.3827 C.ar       1  LIG1  -0.0500
      5 C5        -14.7206    15.1983   -14.4972 C.ar       1  LIG1  -0.1300
      6 C6        -14.5879    16.5087   -15.0012 C.ar       1  LIG1   0.1000
      7 C7        -13.6472    17.4933   -14.3560 C.3        1  LIG1  -0.1500
      8 C8        -15.3316    16.8612   -16.0865 C.ar       1  LIG1  -0.2300
      9 C9        -16.2006    15.9283   -16.6712 C.ar       1  LIG1   0.5000
     10 N1        -16.9511    16.3017   -17.7760 N.pl3      1  LIG1  -0.6900
     11 C10       -16.5429    17.4540   -18.5833 C.3        1  LIG1   0.1100
     12 C11       -17.5342    17.6486   -19.7324 C.3        1  LIG1  -0.0700
     13 C12       -17.1144    18.8340   -20.5628 C.ar       1  LIG1   0.0500
     14 C13       -18.0681    19.5927   -21.2172 C.ar       1  LIG1   0.0700
     15 N2        -17.7000    20.6323   -21.9455 N.ar       1  LIG1  -0.4300
     16 C14       -16.4209    20.9469   -22.0485 C.ar       1  LIG1   0.0900
     17 C15       -16.0011    22.1327   -22.8785 C.3        1  LIG1  -0.1100
     18 C16       -15.4667    20.1878   -21.3938 C.ar       1  LIG1   0.0600
     19 N3        -15.8354    19.1518   -20.6613 N.ar       1  LIG1  -0.4300
     20 N4        -16.3201    14.7058   -16.1960 N.ar       1  LIG1  -0.5300
     21 H1        -16.9306    14.0860   -16.6250 H          1  LIG1   0.4400
     22 C17       -15.6152    14.3026   -15.1324 C.ar       1  LIG1   0.1700
     23 C18       -15.7426    12.9953   -14.6338 C.ar       1  LIG1  -0.1600
     24 H2        -14.5127    11.0819   -12.1482 H          1  LIG1   0.0900
     25 H3        -16.1982    11.0403   -12.7185 H          1  LIG1   0.0900
     26 H4        -14.8833    10.4966   -13.7878 H          1  LIG1   0.0800
     27 H5        -13.5712    13.1658   -12.0657 H          1  LIG1   0.1500
     28 H6        -13.3000    15.4440   -12.8910 H          1  LIG1   0.1600
     29 H7        -13.6909    18.4418   -14.8911 H          1  LIG1   0.1100
     30 H8        -13.9396    17.6482   -13.3174 H          1  LIG1   0.1000
     31 H9        -12.6305    17.1020   -14.3926 H          1  LIG1   0.1000
     32 H10       -15.2527    17.8575   -16.4958 H          1  LIG1   0.1800
     33 H11       -17.7463    15.7998   -18.0142 H          1  LIG1   0.4200
     34 H12       -16.5293    18.3480   -17.9599 H          1  LIG1   0.1000
     35 H13       -15.5464    17.2787   -18.9890 H          1  LIG1   0.0900
     36 H14       -17.5478    16.7546   -20.3558 H          1  LIG1   0.1000
     37 H15       -18.5307    17.8239   -19.3267 H          1  LIG1   0.1000
     38 H16       -19.1138    19.3353   -21.1333 H          1  LIG1   0.1700
     39 H17       -14.9165    22.2343   -22.8444 H          1  LIG1   0.0900
     40 H18       -16.3199    21.9850   -23.9104 H          1  LIG1   0.0900
     41 H19       -16.4634    23.0362   -22.4810 H          1  LIG1   0.0900
     42 H20       -14.4212    20.4451   -21.4778 H          1  LIG1   0.1800
     43 H21       -16.4168    12.2977   -15.1082 H          1  LIG1   0.1500
@<TRIPOS>BOND
     1    1    2 1
     2    1   24 1
     3    1   25 1
     4    1   26 1
     5    2   23 ar
     6    2    3 ar
     7    3    4 ar
     8    3   27 1
     9    4    5 ar
    10    4   28 1
    11    5   22 ar
    12    5    6 ar
    13    6    7 1
    14    6    8 ar
    15    7   29 1
    16    7   30 1
    17    7   31 1
    18    8    9 ar
    19    8   32 1
    20    9   10 1
    21    9   20 ar
    22   10   11 1
    23   10   33 1
    24   11   12 1
    25   11   34 1
    26   11   35 1
    27   12   13 1
    28   12   36 1
    29   12   37 1
    30   13   19 ar
    31   13   14 ar
    32   14   15 ar
    33   14   38 1
    34   15   16 ar
    35   16   17 1
    36   16   18 ar
    37   17   39 1
    38   17   40 1
    39   17   41 1
    40   18   19 ar
    41   18   42 1
    42   20   21 1
    43   20   22 ar
    44   22   23 ar
    45   23   43 1
##########                 Name:     ZINC000361131265
##########          Protonation:                 none
##########               SMILES:   CC(C)[N@H+]1C[C@@H](C)[C@@H](NC(=O)N2CC3=CC=CC=C3[C@@H]2C)C1
##########            Long Name:   NO_LONG_NAME
##########          FlexRecCode: 1
##########               Number:                 5253
##########   Ligand Source File: /nfs/db/export/3D/DG/ADMO/DGADMO.xbbd.db2.gz
##########                 Rank:                    1
##########               Setnum:                    2
##########             Matchnum:                    1
##########                Cloud:                    1
##########        Electrostatic:           -31.733662
##########                 Gist:             0.000000
##########        Van der Waals:           -29.682623
##########  Ligand Polar Desolv:            13.646319
########## Ligand Apolar Desolv:            -6.136145
##########      Internal Energy:             0.000000
##########      Receptor Energy:             0.000000
########## Receptor Desolvation:             0.000000
########## Receptor Hydrophobic:             0.000000
##########         Total Energy:           -53.906109
##########        Ligand Charge:             1.000000
##########            Arbitrary:    +999.9990
##########        Ligand Energy:             0.000000

@<TRIPOS>MOLECULE
 ZINC000361131265      none
   50    52     0     0     0



@<TRIPOS>ATOM
      1 C1        -21.2676    17.4700   -19.2272 C.3        1  LIG1  -0.1800
      2 C2        -20.0215    16.5881   -19.3283 C.3        1  LIG1   0.0300
      3 C3        -19.8088    16.1704   -20.7848 C.3        1  LIG1  -0.1800
      4 N1        -18.8501    17.3399   -18.8585 N.4        1  LIG1  -0.3900
      5 H1        -18.7170    18.1656   -19.4227 H          1  LIG1   0.4300
      6 C4        -19.0216    17.7164   -17.4320 C.3        1  LIG1  -0.0100
      7 C5        -17.5687    17.9623   -16.9531 C.3        1  LIG1  -0.1200
      8 H2        -17.2293    18.9561   -17.2454 H          1  LIG1   0.1200
      9 C6        -17.4596    17.7790   -15.4381 C.3        1  LIG1  -0.1500
     10 C7        -16.7691    16.8696   -17.6993 C.3        1  LIG1   0.1500
     11 H3        -15.8108    17.2654   -18.0356 H          1  LIG1   0.1400
     12 N2        -16.5622    15.7085   -16.8305 N.am       1  LIG1  -0.7400
     13 C8        -15.4486    15.6211   -16.0762 C.2        1  LIG1   0.7300
     14 O1        -14.6158    16.5060   -16.1169 O.2        1  LIG1  -0.5700
     15 N3        -15.2581    14.5528   -15.2768 N.am       1  LIG1  -0.6200
     16 C9        -16.1594    13.4066   -15.1213 C.3        1  LIG1   0.1500
     17 C10       -15.5339    12.4635   -14.1250 C.ar       1  LIG1  -0.1200
     18 C11       -15.9655    11.2470   -13.6257 C.ar       1  LIG1  -0.0900
     19 C12       -15.1964    10.5644   -12.7027 C.ar       1  LIG1  -0.1100
     20 C13       -13.9942    11.0971   -12.2772 C.ar       1  LIG1  -0.1100
     21 C14       -13.5625    12.3116   -12.7754 C.ar       1  LIG1  -0.0900
     22 C15       -14.3325    12.9958   -13.7000 C.ar       1  LIG1  -0.1000
     23 C16       -14.1072    14.3115   -14.4010 C.3        1  LIG1   0.2000
     24 H4        -13.1934    14.2629   -14.9933 H          1  LIG1   0.0900
     25 C17       -13.9972    15.4364   -13.3699 C.3        1  LIG1  -0.1600
     26 C18       -17.6427    16.4871   -18.9096 C.3        1  LIG1  -0.0300
     27 H5        -21.4190    17.7675   -18.1895 H          1  LIG1   0.1000
     28 H6        -21.1348    18.3587   -19.8442 H          1  LIG1   0.0800
     29 H7        -22.1368    16.9122   -19.5757 H          1  LIG1   0.0800
     30 H8        -20.1542    15.6994   -18.7111 H          1  LIG1   0.1300
     31 H9        -18.9211    15.5421   -20.8566 H          1  LIG1   0.0800
     32 H10       -20.6780    15.6127   -21.1333 H          1  LIG1   0.0800
     33 H11       -19.6760    17.0591   -21.4017 H          1  LIG1   0.1000
     34 H12       -19.6151    18.6262   -17.3429 H          1  LIG1   0.1400
     35 H13       -19.4787    16.9011   -16.8711 H          1  LIG1   0.1300
     36 H14       -16.4311    17.9564   -15.1237 H          1  LIG1   0.0600
     37 H15       -18.1198    18.4875   -14.9378 H          1  LIG1   0.0800
     38 H16       -17.7502    16.7622   -15.1733 H          1  LIG1   0.0800
     39 H17       -17.2264    15.0024   -16.7981 H          1  LIG1   0.4000
     40 H18       -17.1274    13.7452   -14.7521 H          1  LIG1   0.0800
     41 H19       -16.2844    12.9023   -16.0795 H          1  LIG1   0.0800
     42 H20       -16.9052    10.8308   -13.9578 H          1  LIG1   0.1300
     43 H21       -15.5348     9.6154   -12.3137 H          1  LIG1   0.1300
     44 H22       -13.3924    10.5646   -11.5557 H          1  LIG1   0.1300
     45 H23       -12.6231    12.7278   -12.4426 H          1  LIG1   0.1300
     46 H24       -13.1406    15.2526   -12.7216 H          1  LIG1   0.0700
     47 H25       -13.8663    16.3887   -13.8836 H          1  LIG1   0.0800
     48 H26       -14.9066    15.4694   -12.7698 H          1  LIG1   0.0600
     49 H27       -17.9278    15.4371   -18.8447 H          1  LIG1   0.1300
     50 H28       -17.0959    16.6697   -19.8347 H          1  LIG1   0.1400
@<TRIPOS>BOND
     1    1    2 1
     2    1   27 1
     3    1   28 1
     4    1   29 1
     5    2    3 1
     6    2    4 1
     7    2   30 1
     8    3   31 1
     9    3   32 1
    10    3   33 1
    11    4    5 1
    12    4   26 1
    13    4    6 1
    14    6    7 1
    15    6   34 1
    16    6   35 1
    17    7    8 1
    18    7    9 1
    19    7   10 1
    20    9   36 1
    21    9   37 1
    22    9   38 1
    23   10   11 1
    24   10   12 1
    25   10   26 1
    26   12   13 am
    27   12   39 1
    28   13   14 2
    29   13   15 am
    30   15   23 1
    31   15   16 1
    32   16   17 1
    33   16   40 1
    34   16   41 1
    35   17   22 ar
    36   17   18 ar
    37   18   19 ar
    38   18   42 1
    39   19   20 ar
    40   19   43 1
    41   20   21 ar
    42   20   44 1
    43   21   22 ar
    44   21   45 1
    45   22   23 1
    46   23   24 1
    47   23   25 1
    48   25   46 1
    49   25   47 1
    50   25   48 1
    51   26   49 1
    52   26   50 1
